7gpp_A_201_1_7gp7+A+201+1__LIG
     RDKit          3D

 13 13  0  0  0  0  0  0  0  0999 V2000
  -13.9700  -25.2260   13.0770 C   0  0  0  0  0  0  0  0  0  0  0  0
  -13.2690  -26.2220   14.0040 C   0  0  2  0  0  0  0  0  0  0  0  0
  -13.4090  -25.8600   15.4770 C   0  0  0  0  0  0  0  0  0  0  0  0
  -10.3340  -24.4260   12.5420 C   0  0  0  0  0  0  0  0  0  0  0  0
   -9.4940  -22.5000   13.6160 C   0  0  0  0  0  0  0  0  0  0  0  0
  -11.8600  -26.1750   13.5330 N   0  0  0  0  0  0  0  0  0  0  0  0
  -10.6580  -27.2890   15.3680 C   0  0  0  0  0  0  0  0  0  0  0  0
  -10.0680  -27.4450   13.0690 O   0  0  0  0  0  0  0  0  0  0  0  0
  -10.8280  -26.9850   13.9080 C   0  0  0  0  0  0  0  0  0  0  0  0
  -11.6540  -25.1850   12.4730 C   0  0  1  0  0  0  0  0  0  0  0  0
  -12.8600  -24.2630   12.6420 C   0  0  0  0  0  0  0  0  0  0  0  0
   -9.5170  -24.4160   11.6660 O   0  0  0  0  0  0  0  0  0  0  0  0
  -10.1960  -23.7690   13.6860 O   0  0  0  0  0  0  0  0  0  0  0  0
  8  9  2  0
  7  9  1  0
  9  6  1  0
  6  2  1  0
  6 10  1  0
  2  3  1  1
  2  1  1  0
 10  4  1  1
 10 11  1  0
  1 11  1  0
 12  4  2  0
  4 13  1  0
 13  5  1  0
M  END
$$$$
