D68EV3CPROB-x0436_B_301_1_7gp9+A+201+1__LIG
     RDKit          3D

 21 23  0  0  0  0  0  0  0  0999 V2000
    3.8150    1.7910   33.3850 O   0  0  0  0  0  0  0  0  0  0  0  0
    3.5000    0.9670   34.2420 C   0  0  0  0  0  0  0  0  0  0  0  0
    2.5550    1.2040   35.1450 N   0  0  0  0  0  0  0  0  0  0  0  0
    2.4470    2.4700   35.8470 C   0  0  0  0  0  0  0  0  0  0  0  0
    4.1830   -0.3840   34.3360 C   0  0  0  0  0  0  0  0  0  0  0  0
    3.3490   -1.5330   33.8130 C   0  0  0  0  0  0  0  0  0  0  0  0
    2.5820   -1.4000   32.6640 C   0  0  0  0  0  0  0  0  0  0  0  0
    1.8340   -2.4560   32.1770 C   0  0  0  0  0  0  0  0  0  0  0  0
    1.8270   -3.6850   32.8320 C   0  0  0  0  0  0  0  0  0  0  0  0
    2.6010   -3.8220   33.9820 C   0  0  0  0  0  0  0  0  0  0  0  0
    3.3510   -2.7600   34.4600 C   0  0  0  0  0  0  0  0  0  0  0  0
    1.0010   -4.8110   32.3340 C   0  0  0  0  0  0  0  0  0  0  0  0
    0.2450   -5.5590   33.1780 C   0  0  0  0  0  0  0  0  0  0  0  0
   -0.5130   -6.6100   32.6980 N   0  0  0  0  0  0  0  0  0  0  0  0
   -1.3610   -7.5380   33.2920 C   0  0  0  0  0  0  0  0  0  0  0  0
   -1.5820   -7.5670   34.6120 N   0  0  0  0  0  0  0  0  0  0  0  0
   -1.8720   -8.3530   32.3780 N   0  0  0  0  0  0  0  0  0  0  0  0
   -1.3510   -7.9780   31.1400 N   0  0  0  0  0  0  0  0  0  0  0  0
   -0.5440   -6.9450   31.3470 C   0  0  0  0  0  0  0  0  0  0  0  0
    0.2460   -6.1770   30.4510 C   0  0  0  0  0  0  0  0  0  0  0  0
    0.9850   -5.1510   30.9370 C   0  0  0  0  0  0  0  0  0  0  0  0
  4  3  1  0
  3  2  1  0
  2  1  2  0
  5  2  1  0
  6  5  1  0
  6 11  2  0
 11 10  1  0
 10  9  2  0
 12  9  1  0
 12 21  1  0
 21 20  2  0
 20 19  1  0
 19 18  2  0
 18 17  1  0
 17 15  2  0
 16 15  1  0
 15 14  1  0
 19 14  1  0
 14 13  1  0
 13 12  2  0
  9  8  1  0
  8  7  2  0
  7  6  1  0
M  END
$$$$
