D68EV3CPROB-x1120_A_308_1_D68EV3CPROB-x1120+A+308+1__LIG
     RDKit          3D

 17 18  0  0  0  0  0  0  0  0999 V2000
  -15.4780  -20.2370   33.2120 O   0  0  0  0  0  0  0  0  0  0  0  0
  -16.2960  -20.8970   32.2450 S   0  0  0  0  0  0  0  0  0  0  0  0
  -16.8590  -20.1520   31.1650 O   0  0  0  0  0  0  0  0  0  0  0  0
  -17.4580  -21.5670   33.1230 N   0  0  0  0  0  0  0  0  0  0  0  0
  -18.1320  -20.7450   34.1450 C   0  0  0  0  0  0  0  0  0  0  0  0
  -18.7530  -21.6560   35.1790 C   0  0  0  0  0  0  0  0  0  0  0  0
  -19.6640  -22.6000   34.5280 N   0  0  0  0  0  0  0  0  0  0  0  0
  -18.9370  -23.4240   33.5510 C   0  0  0  0  0  0  0  0  0  0  0  0
  -18.3740  -22.5290   32.4860 C   0  0  0  0  0  0  0  0  0  0  0  0
  -15.4990  -22.1630   31.6180 N   0  0  0  0  0  0  0  0  0  0  0  0
  -14.6320  -23.0090   32.4480 C   0  0  0  0  0  0  0  0  0  0  0  0
  -14.0350  -24.1410   31.6360 C   0  0  0  0  0  0  0  0  0  0  0  0
  -13.3080  -23.5820   30.4520 C   0  0  0  0  0  0  0  0  0  0  0  0
  -13.3810  -24.1670   29.2550 N   0  0  0  0  0  0  0  0  0  0  0  0
  -12.6100  -23.4070   28.4400 N   0  0  0  0  0  0  0  0  0  0  0  0
  -12.0650  -22.3770   29.0980 C   0  0  0  0  0  0  0  0  0  0  0  0
  -12.4930  -22.4490   30.3930 C   0  0  0  0  0  0  0  0  0  0  0  0
  3  2  2  0
  2  1  2  0
 10  2  1  0
 11 10  1  0
 12 11  1  0
 13 12  1  0
 13 17  1  0
 17 16  2  0
 16 15  1  0
 15 14  1  0
 14 13  2  0
  4  2  1  0
  4  9  1  0
  9  8  1  0
  8  7  1  0
  7  6  1  0
  6  5  1  0
  5  4  1  0
M  END
$$$$
