7go5_A_202_1_7goa+A+201+1__LIG
     RDKit          3D

 12 13  0  0  0  0  0  0  0  0999 V2000
  -11.4770  -32.4590   25.1350 C   0  0  0  0  0  0  0  0  0  0  0  0
  -11.6480  -33.5720   24.1670 C   0  0  0  0  0  0  0  0  0  0  0  0
  -10.6970  -34.4750   23.9670 C   0  0  0  0  0  0  0  0  0  0  0  0
   -9.4600  -34.3950   24.6810 C   0  0  0  0  0  0  0  0  0  0  0  0
   -8.3840  -35.2590   24.4570 C   0  0  0  0  0  0  0  0  0  0  0  0
   -7.1540  -34.9310   24.9800 C   0  0  0  0  0  0  0  0  0  0  0  0
  -10.3170  -32.5160   25.9730 O   0  0  0  0  0  0  0  0  0  0  0  0
   -6.9140  -33.7960   25.6810 C   0  0  0  0  0  0  0  0  0  0  0  0
   -7.9860  -32.9910   25.9110 C   0  0  0  0  0  0  0  0  0  0  0  0
   -9.2700  -33.2750   25.4850 C   0  0  0  0  0  0  0  0  0  0  0  0
   -6.1270  -35.7950   24.8180 F   0  0  0  0  0  0  0  0  0  0  0  0
   -7.7710  -31.8640   26.5690 F   0  0  0  0  0  0  0  0  0  0  0  0
 12  9  1  0
  9  8  2  0
  9 10  1  0
  8  6  1  0
  7 10  1  0
  7  1  1  0
 10  4  2  0
  1  2  1  0
  6 11  1  0
  6  5  2  0
  4  5  1  0
  4  3  1  0
  2  3  2  0
M  END
$$$$
