D68EV3CPROB-x0450_A_209_1_7gp9+A+201+1__LIG
     RDKit          3D

 20 22  0  0  0  0  0  0  0  0999 V2000
   -1.5260   -7.6400   34.5750 N   0  0  0  0  0  0  0  0  0  0  0  0
   -1.3210   -7.6120   33.2510 C   0  0  0  0  0  0  0  0  0  0  0  0
   -1.9160   -8.3590   32.3280 N   0  0  0  0  0  0  0  0  0  0  0  0
   -1.4050   -7.9820   31.0890 N   0  0  0  0  0  0  0  0  0  0  0  0
   -0.4230   -6.7430   32.6670 N   0  0  0  0  0  0  0  0  0  0  0  0
   -0.5130   -7.0170   31.3060 C   0  0  0  0  0  0  0  0  0  0  0  0
    0.3190   -6.2830   30.4240 C   0  0  0  0  0  0  0  0  0  0  0  0
    1.1710   -5.3550   30.9310 C   0  0  0  0  0  0  0  0  0  0  0  0
    0.4450   -5.7930   33.1700 C   0  0  0  0  0  0  0  0  0  0  0  0
    1.2600   -5.0860   32.3450 C   0  0  0  0  0  0  0  0  0  0  0  0
    2.2490   -4.1200   32.8820 C   0  0  0  0  0  0  0  0  0  0  0  0
    2.4530   -2.8860   32.2660 C   0  0  0  0  0  0  0  0  0  0  0  0
    3.3870   -1.9910   32.7590 C   0  0  0  0  0  0  0  0  0  0  0  0
    2.9970   -4.4510   34.0090 C   0  0  0  0  0  0  0  0  0  0  0  0
    3.9380   -3.5690   34.5080 C   0  0  0  0  0  0  0  0  0  0  0  0
    4.7330   -3.8180   35.5930 O   0  0  0  0  0  0  0  0  0  0  0  0
    5.4020   -5.0790   35.6500 C   0  0  0  0  0  0  0  0  0  0  0  0
    4.1330   -2.3230   33.8800 C   0  0  0  0  0  0  0  0  0  0  0  0
    5.0690   -1.5100   34.4600 O   0  0  0  0  0  0  0  0  0  0  0  0
    6.2170   -1.1670   33.6830 C   0  0  0  0  0  0  0  0  0  0  0  0
 20 19  1  0
 19 18  1  0
 18 13  1  0
 13 12  2  0
 12 11  1  0
 11 10  1  0
 10  8  1  0
  8  7  2  0
  7  6  1  0
  6  4  2  0
  4  3  1  0
  3  2  2  0
  2  1  1  0
  5  2  1  0
  6  5  1  0
  9  5  1  0
 10  9  2  0
 14 11  2  0
 15 14  1  0
 18 15  2  0
 16 15  1  0
 17 16  1  0
M  END
$$$$
