7gpk_B_202_1_7gp9+A+201+1__LIG
     RDKit          3D

 13 14  0  0  0  0  0  0  0  0999 V2000
   -4.9440   -0.2230   33.5090 C   0  0  0  0  0  0  0  0  0  0  0  0
   -4.7000   -1.6960   33.7060 C   0  0  0  0  0  0  0  0  0  0  0  0
   -4.6170   -2.0090   35.1790 C   0  0  0  0  0  0  0  0  0  0  0  0
   -5.2290   -0.8850   36.0070 C   0  0  0  0  0  0  0  0  0  0  0  0
   -7.1680    0.5450   36.3250 C   0  0  0  0  0  0  0  0  0  0  0  0
   -8.4380    0.0600   36.9780 C   0  0  0  0  0  0  0  0  0  0  0  0
   -9.0250    0.6410   38.1460 C   0  0  0  0  0  0  0  0  0  0  0  0
  -10.1990    0.0410   38.5260 C   0  0  0  0  0  0  0  0  0  0  0  0
   -9.1870   -0.9790   36.4970 C   0  0  0  0  0  0  0  0  0  0  0  0
   -6.2790    0.1890   34.1130 C   0  0  0  0  0  0  0  0  0  0  0  0
   -6.5080   -0.4170   35.4350 N   0  0  0  0  0  0  0  0  0  0  0  0
   -5.7610   -2.4380   33.1170 O   0  0  0  0  0  0  0  0  0  0  0  0
  -10.5850   -1.2610   37.4330 S   0  0  0  0  0  0  0  0  0  0  0  0
  2 12  1  0
  3  2  1  0
  4  3  1  0
 11  4  1  0
  6  5  1  0
  7  6  1  0
  8  7  2  0
 13  8  1  0
  9 13  1  0
  5 11  1  0
 10 11  1  0
  1 10  1  0
  2  1  1  0
  6  9  2  0
M  END
$$$$
