7goe_B_201_1_7gon+B+201+1__LIG
     RDKit          3D

 18 20  0  0  0  0  0  0  0  0999 V2000
   15.4450   -1.0390   18.1470 C   0  0  0  0  0  0  0  0  0  0  0  0
   15.6640    0.3200   17.9630 C   0  0  0  0  0  0  0  0  0  0  0  0
   15.5660    1.2030   19.0280 C   0  0  0  0  0  0  0  0  0  0  0  0
   15.2530    0.7400   20.2900 C   0  0  0  0  0  0  0  0  0  0  0  0
   15.0410   -0.6080   20.4880 C   0  0  0  0  0  0  0  0  0  0  0  0
   14.2220   -2.1750   16.2360 C   0  0  0  0  0  0  0  0  0  0  0  0
   11.8140   -2.5240   14.8710 C   0  0  0  0  0  0  0  0  0  0  0  0
   13.2800   -3.0950   16.6790 C   0  0  0  0  0  0  0  0  0  0  0  0
   16.0720   -3.3230   17.4110 N   0  0  0  0  0  0  0  0  0  0  0  0
   17.7040   -4.6590   17.1260 C   0  0  0  0  0  0  0  0  0  0  0  0
   18.9040   -4.6480   16.3620 O   0  0  0  0  0  0  0  0  0  0  0  0
   16.4500   -4.2740   16.3290 C   0  0  0  0  0  0  0  0  0  0  0  0
   13.9350   -1.4320   15.0980 C   0  0  0  0  0  0  0  0  0  0  0  0
   12.7370   -1.6050   14.4220 C   0  0  0  0  0  0  0  0  0  0  0  0
   12.0850   -3.2700   15.9970 C   0  0  0  0  0  0  0  0  0  0  0  0
   17.4550   -3.3950   17.9590 C   0  0  0  0  0  0  0  0  0  0  0  0
   15.5450   -2.0080   16.9740 C   0  0  0  0  0  0  0  0  0  0  0  0
   15.1330   -1.4920   19.4240 C   0  0  0  0  0  0  0  0  0  0  0  0
 11 10  1  0
 10 16  1  0
 10 12  1  0
 16  9  1  0
 12  9  1  0
  9 17  1  0
 17  1  1  0
 17  6  1  0
  2  1  2  0
  2  3  1  0
  1 18  1  0
  3  4  2  0
 18  5  2  0
  6 13  2  0
  6  8  1  0
  4  5  1  0
 13 14  1  0
  8 15  2  0
 14  7  2  0
 15  7  1  0
M  END
$$$$
