7gpu_B_301_1_7gon+B+201+1__LIG
     RDKit          3D

 16 17  0  0  0  0  0  0  0  0999 V2000
   13.6170   -2.7100   16.7550 C   0  0  0  0  0  0  0  0  0  0  0  0
   12.4320   -3.4090   16.5900 C   0  0  0  0  0  0  0  0  0  0  0  0
   11.5180   -3.0100   15.6420 C   0  0  0  0  0  0  0  0  0  0  0  0
   11.7690   -1.8940   14.8800 C   0  0  0  0  0  0  0  0  0  0  0  0
   12.9570   -1.1980   15.0340 C   0  0  0  0  0  0  0  0  0  0  0  0
   15.8330   -2.1520   12.4970 C   0  0  0  0  0  0  0  0  0  0  0  0
   16.0430   -1.8710   13.8110 N   0  0  0  0  0  0  0  0  0  0  0  0
   16.6600   -2.9530   17.3160 C   0  0  0  0  0  0  0  0  0  0  0  0
   16.8750   -2.1860   18.4970 O   0  0  0  0  0  0  0  0  0  0  0  0
   16.5390   -2.0560   16.0930 C   0  0  1  0  0  0  0  0  0  0  0  0
   14.6420   -1.5430   11.8260 C   0  0  0  0  0  0  0  0  0  0  0  0
   16.5730   -2.8410   14.7760 C   0  0  0  0  0  0  0  0  0  0  0  0
   15.3330   -1.0630   15.8680 C   0  0  2  0  0  0  0  0  0  0  0  0
   13.9220   -1.6280   15.9400 C   0  0  0  0  0  0  0  0  0  0  0  0
   15.7210   -0.6040   14.4680 C   0  0  0  0  0  0  0  0  0  0  0  0
   16.5900   -2.8860   11.8840 O   0  0  0  0  0  0  0  0  0  0  0  0
 11  6  1  0
 16  6  2  0
  6  7  1  0
 15  7  1  0
 15 13  1  0
  7 12  1  0
 12 10  1  0
 13 10  1  0
 13 14  1  6
 10  8  1  1
  5 14  1  0
  5  4  2  0
 14  1  2  0
  4  3  1  0
  8  9  1  0
  1  2  1  0
  3  2  2  0
M  END
$$$$
