7gqq_B_201_1_7gon+B+201+1__LIG
     RDKit          3D

  6  6  0  0  0  0  0  0  0  0999 V2000
   12.9420   -1.2780   16.3340 N   0  0  0  0  0  0  0  0  0  0  0  0
   11.5280   -1.2440   14.6320 N   0  0  0  0  0  0  0  0  0  0  0  0
   12.5370   -2.5520   16.0850 C   0  0  0  0  0  0  0  0  0  0  0  0
   11.6390   -2.5510   15.0140 C   0  0  0  0  0  0  0  0  0  0  0  0
   12.3190   -0.5220   15.4410 C   0  0  0  0  0  0  0  0  0  0  0  0
   13.1140   -3.9090   16.9900 Cl  0  0  0  0  0  0  0  0  0  0  0  0
  5  2  2  0
  5  1  1  0
  2  4  1  0
  1  3  1  0
  4  3  2  0
  3  6  1  0
M  END
$$$$
