D68EV3CPROB-x1219_A_310_1_7gp9+A+201+1__LIG
     RDKit          3D

 20 23  0  0  0  0  0  0  0  0999 V2000
   -1.3490   -0.3480   27.8130 F   0  0  0  0  0  0  0  0  0  0  0  0
   -0.3640   -1.1570   28.2900 C   0  0  0  0  0  0  0  0  0  0  0  0
   -0.7310   -2.2250   29.0790 C   0  0  0  0  0  0  0  0  0  0  0  0
    0.2980   -2.9840   29.6280 C   0  0  0  0  0  0  0  0  0  0  0  0
    1.6340   -2.6830   29.3670 C   0  0  0  0  0  0  0  0  0  0  0  0
    1.9540   -1.6110   28.5380 C   0  0  0  0  0  0  0  0  0  0  0  0
    0.9420   -0.8350   27.9960 C   0  0  0  0  0  0  0  0  0  0  0  0
    0.3260   -4.0470   30.5310 N   0  0  0  0  0  0  0  0  0  0  0  0
    1.6340   -4.3110   30.7630 C   0  0  0  0  0  0  0  0  0  0  0  0
    2.4450   -3.5400   30.0940 N   0  0  0  0  0  0  0  0  0  0  0  0
    2.2130   -5.5520   31.8600 S   0  0  0  0  0  0  0  0  0  0  0  0
    0.9270   -6.0560   32.9080 C   0  0  0  0  0  0  0  0  0  0  0  0
   -0.0720   -6.8940   32.4010 N   0  0  0  0  0  0  0  0  0  0  0  0
   -0.3530   -7.3690   31.1520 C   0  0  0  0  0  0  0  0  0  0  0  0
   -1.4010   -8.1450   31.1740 N   0  0  0  0  0  0  0  0  0  0  0  0
   -1.8590   -8.2010   32.4890 N   0  0  0  0  0  0  0  0  0  0  0  0
   -1.0530   -7.4400   33.2240 C   0  0  0  0  0  0  0  0  0  0  0  0
   -1.0270   -7.1150   34.6040 C   0  0  0  0  0  0  0  0  0  0  0  0
   -0.0590   -6.2760   35.0830 C   0  0  0  0  0  0  0  0  0  0  0  0
    0.9330   -5.7320   34.2240 C   0  0  0  0  0  0  0  0  0  0  0  0
  2  1  1  0
  2  7  2  0
  7  6  1  0
  6  5  2  0
  5 10  1  0
 10  9  2  0
 11  9  1  0
 12 11  1  0
 12 20  2  0
 20 19  1  0
 19 18  2  0
 18 17  1  0
 17 16  2  0
 16 15  1  0
 15 14  2  0
 14 13  1  0
 13 12  1  0
 17 13  1  0
  9  8  1  0
  8  4  1  0
  5  4  1  0
  4  3  2  0
  3  2  1  0
M  END
$$$$
