D68EV3CPROB-x1170_A_308_1_7gpw+B+202+1__LIG
     RDKit          3D

 18 19  0  0  0  0  0  0  0  0999 V2000
   -3.5050   -0.2660    7.9630 Cl  0  0  0  0  0  0  0  0  0  0  0  0
   -4.4180   -0.6760    6.3580 C   0  0  1  0  0  0  0  0  0  0  0  0
   -3.9750   -1.8310    5.8870 F   0  0  0  0  0  0  0  0  0  0  0  0
   -5.8690   -0.8020    6.8050 C   0  0  0  0  0  0  0  0  0  0  0  0
   -6.4400   -1.8880    6.7200 O   0  0  0  0  0  0  0  0  0  0  0  0
   -6.4230    0.3260    7.3090 N   0  0  0  0  0  0  0  0  0  0  0  0
   -7.7150    0.4910    7.8570 C   0  0  0  0  0  0  0  0  0  0  0  0
   -8.1060    1.7190    8.3750 C   0  0  0  0  0  0  0  0  0  0  0  0
   -9.2830    1.9390    8.9680 N   0  0  0  0  0  0  0  0  0  0  0  0
  -10.1370    0.9100    9.0440 C   0  0  0  0  0  0  0  0  0  0  0  0
   -9.8540   -0.3570    8.5290 C   0  0  0  0  0  0  0  0  0  0  0  0
   -8.6220   -0.5540    7.9380 C   0  0  0  0  0  0  0  0  0  0  0  0
  -11.3290    1.1570    9.6720 N   0  0  0  0  0  0  0  0  0  0  0  0
  -11.8080    2.5170    9.9190 C   0  0  0  0  0  0  0  0  0  0  0  0
  -13.2910    2.4810   10.1800 C   0  0  0  0  0  0  0  0  0  0  0  0
  -13.8820    1.2700    9.7040 O   0  0  0  0  0  0  0  0  0  0  0  0
  -13.3950    0.1550   10.4510 C   0  0  0  0  0  0  0  0  0  0  0  0
  -11.9020    0.2190   10.6400 C   0  0  0  0  0  0  0  0  0  0  0  0
  5  4  2  0
  6  4  1  0
  7  6  1  0
  7 12  2  0
 12 11  1  0
 11 10  2  0
 13 10  1  0
 13 18  1  0
 18 17  1  0
 17 16  1  0
 16 15  1  0
 15 14  1  0
 14 13  1  0
 10  9  1  0
  9  8  2  0
  8  7  1  0
  4  2  1  0
  2  3  1  1
  2  1  1  0
M  END
$$$$
