7go9_A_201_1_7gpw+B+202+1__LIG
     RDKit          3D

 12 13  0  0  0  0  0  0  0  0999 V2000
   -8.7920   -4.7550    7.1160 N   0  0  0  0  0  0  0  0  0  0  0  0
   -5.2140    0.0000    7.7990 C   0  0  0  0  0  0  0  0  0  0  0  0
   -7.6850   -2.7920    7.1800 C   0  0  0  0  0  0  0  0  0  0  0  0
   -8.4590   -3.7290    7.8870 C   0  0  0  0  0  0  0  0  0  0  0  0
   -7.5740   -3.3330    5.9090 C   0  0  0  0  0  0  0  0  0  0  0  0
   -5.8190   -1.2620    7.3660 N   0  0  0  0  0  0  0  0  0  0  0  0
   -7.1130   -1.5190    7.6180 C   0  0  0  0  0  0  0  0  0  0  0  0
   -7.8390   -0.7310    8.2150 O   0  0  0  0  0  0  0  0  0  0  0  0
   -4.8280   -2.1180    6.6890 C   0  0  0  0  0  0  0  0  0  0  0  0
   -3.5560   -1.2870    6.7220 C   0  0  0  0  0  0  0  0  0  0  0  0
   -3.7440   -0.3340    7.8620 C   0  0  0  0  0  0  0  0  0  0  0  0
   -8.2430   -4.4870    5.9160 N   0  0  0  0  0  0  0  0  0  0  0  0
  8  7  2  0
  9 10  1  0
  9  6  1  0
  7  6  1  0
  7  3  1  0
  5  3  1  0
  5 12  2  0
 10 11  1  0
  6  2  1  0
  3  4  2  0
 12  1  1  0
 11  2  1  0
  4  1  1  0
M  END
$$$$
