D68EV3CPROB-x0938_A_308_1_7gp9+A+201+1__LIG
     RDKit          3D

 20 23  0  0  0  0  0  0  0  0999 V2000
    2.9460   -8.5490   35.0310 O   0  0  0  0  0  0  0  0  0  0  0  0
    2.1430   -7.9790   35.7770 C   0  0  0  0  0  0  0  0  0  0  0  0
    2.0170   -8.1090   37.2270 C   0  0  0  0  0  0  0  0  0  0  0  0
    3.0130   -9.0820   38.2440 S   0  0  0  0  0  0  0  0  0  0  0  0
    2.1190   -8.6300   39.6240 C   0  0  0  0  0  0  0  0  0  0  0  0
    1.1000   -7.7620   39.3510 C   0  0  0  0  0  0  0  0  0  0  0  0
    1.0420   -7.4540   37.9480 C   0  0  0  0  0  0  0  0  0  0  0  0
    0.1560   -6.6250   37.3090 N   0  0  0  0  0  0  0  0  0  0  0  0
    0.2660   -6.4890   36.0170 C   0  0  0  0  0  0  0  0  0  0  0  0
    1.1990   -7.1230   35.2490 N   0  0  0  0  0  0  0  0  0  0  0  0
   -0.8560   -5.3960   35.2530 S   0  0  0  0  0  0  0  0  0  0  0  0
   -0.4930   -5.5920   33.5470 C   0  0  0  0  0  0  0  0  0  0  0  0
   -0.9950   -6.7450   32.9410 N   0  0  0  0  0  0  0  0  0  0  0  0
   -1.6930   -7.8140   33.4210 C   0  0  0  0  0  0  0  0  0  0  0  0
   -2.0060   -8.6340   32.4630 N   0  0  0  0  0  0  0  0  0  0  0  0
   -1.4920   -8.1230   31.2840 N   0  0  0  0  0  0  0  0  0  0  0  0
   -0.8700   -6.9820   31.5800 C   0  0  0  0  0  0  0  0  0  0  0  0
   -0.1660   -6.0320   30.8030 C   0  0  0  0  0  0  0  0  0  0  0  0
    0.3410   -4.9130   31.4080 C   0  0  0  0  0  0  0  0  0  0  0  0
    0.1730   -4.6860   32.7920 C   0  0  0  0  0  0  0  0  0  0  0  0
  2  1  2  0
  2 10  1  0
 10  9  1  0
 11  9  1  0
 12 11  1  0
 12 20  2  0
 20 19  1  0
 19 18  2  0
 18 17  1  0
 17 16  2  0
 16 15  1  0
 15 14  2  0
 14 13  1  0
 13 12  1  0
 17 13  1  0
  9  8  2  0
  8  7  1  0
  7  6  1  0
  6  5  2  0
  5  4  1  0
  4  3  1  0
  3  2  1  0
  7  3  2  0
M  END
$$$$
