7goa_A_201_1_7goa+A+201+1__LIG
     RDKit          3D

 13 14  0  0  0  0  0  0  0  0999 V2000
   -7.4970  -37.3470   24.1520 N   0  0  0  0  0  0  0  0  0  0  0  0
   -6.8170  -37.5110   23.0710 C   0  0  0  0  0  0  0  0  0  0  0  0
   -8.6250  -35.9560   22.6190 C   0  0  0  0  0  0  0  0  0  0  0  0
   -9.6000  -35.0420   22.2470 C   0  0  0  0  0  0  0  0  0  0  0  0
  -12.6530  -34.0950   21.8770 O   0  0  0  0  0  0  0  0  0  0  0  0
  -11.7530  -33.4400   22.7750 S   0  0  0  0  0  0  0  0  0  0  0  0
  -12.2800  -32.9090   23.9970 O   0  0  0  0  0  0  0  0  0  0  0  0
  -11.0790  -32.2310   21.9730 N   0  0  0  0  0  0  0  0  0  0  0  0
  -10.5000  -34.6090   23.2110 C   0  0  0  0  0  0  0  0  0  0  0  0
   -7.3420  -36.6380   21.6680 S   0  0  0  0  0  0  0  0  0  0  0  0
   -8.5500  -36.4550   23.9240 C   0  0  0  0  0  0  0  0  0  0  0  0
   -9.4880  -36.0300   24.8610 C   0  0  0  0  0  0  0  0  0  0  0  0
  -10.4460  -35.0920   24.5130 C   0  0  0  0  0  0  0  0  0  0  0  0
  2  1  2  0
  2 10  1  0
  1 11  1  0
 10  3  1  0
 11  3  2  0
 11 12  1  0
  3  4  1  0
 12 13  2  0
  8  6  1  0
  4  9  2  0
 13  9  1  0
  9  6  1  0
  6  7  2  0
  6  5  2  0
M  END
$$$$
