7gqi_B_201_1_7gp7+A+201+1__LIG
     RDKit          3D

 12 13  0  0  0  0  0  0  0  0999 V2000
   -8.9800  -24.9540   33.7380 C   0  0  0  0  0  0  0  0  0  0  0  0
   -8.5640  -25.6030   32.5950 C   0  0  0  0  0  0  0  0  0  0  0  0
   -9.0550  -25.2240   31.3560 C   0  0  0  0  0  0  0  0  0  0  0  0
  -11.3200  -23.9360   27.7310 C   0  0  0  0  0  0  0  0  0  0  0  0
  -10.9700  -24.4970   26.3820 C   0  0  0  0  0  0  0  0  0  0  0  0
  -10.4570  -25.8310   28.9210 O   0  0  0  0  0  0  0  0  0  0  0  0
  -10.7240  -24.6290   28.9330 C   0  0  0  0  0  0  0  0  0  0  0  0
  -12.3280  -24.7030   26.9230 C   0  0  0  0  0  0  0  0  0  0  0  0
  -10.5150  -23.8230   30.0000 N   0  0  0  0  0  0  0  0  0  0  0  0
   -9.9840  -24.1940   31.2610 C   0  0  0  0  0  0  0  0  0  0  0  0
   -9.8960  -23.9260   33.6500 C   0  0  0  0  0  0  0  0  0  0  0  0
  -10.4020  -23.5410   32.4170 C   0  0  0  0  0  0  0  0  0  0  0  0
  7  6  2  0
  9  7  1  0
 10  9  1  0
 10 12  2  0
 12 11  1  0
 11  1  2  0
  1  2  1  0
  2  3  2  0
  3 10  1  0
  4  7  1  0
  4  5  1  0
  5  8  1  0
  8  4  1  0
M  END
$$$$
