7gpa_B_201_1_7gon+B+201+1__LIG
     RDKit          3D

 12 12  0  0  0  0  0  0  0  0999 V2000
   11.6870   -3.0420   15.3630 C   0  0  0  0  0  0  0  0  0  0  0  0
   12.5290   -3.3170   16.4090 C   0  0  0  0  0  0  0  0  0  0  0  0
   13.4140   -2.4040   16.9140 C   0  0  0  0  0  0  0  0  0  0  0  0
   13.4160   -1.1280   16.3860 C   0  0  0  0  0  0  0  0  0  0  0  0
   10.9440    1.5710   13.6550 C   0  0  0  0  0  0  0  0  0  0  0  0
   10.5810    1.9260   12.4380 O   0  0  0  0  0  0  0  0  0  0  0  0
   12.3120    0.9420   13.7040 C   0  0  0  0  0  0  0  0  0  0  0  0
   12.5490   -0.8080   15.3600 C   0  0  0  0  0  0  0  0  0  0  0  0
   11.6990   -1.7670   14.8310 C   0  0  0  0  0  0  0  0  0  0  0  0
   12.4220   -4.5170   17.0310 F   0  0  0  0  0  0  0  0  0  0  0  0
   10.2710    1.7470   14.6620 O   0  0  0  0  0  0  0  0  0  0  0  0
   12.6140    0.5250   15.0430 O   0  0  0  0  0  0  0  0  0  0  0  0
  6  5  2  0
  7  5  1  0
  7 12  1  0
  5 11  1  0
 12  8  1  0
  8  4  2  0
  8  9  1  0
  4  3  1  0
  9  1  2  0
  3  2  2  0
  1  2  1  0
  2 10  1  0
M  END
$$$$
