D68EV3CPROB-x0857_B_207_1_7gp9+A+201+1__LIG
     RDKit          3D

 16 18  0  0  0  0  0  0  0  0999 V2000
   -1.5630   -7.4920   34.6390 N   0  0  0  0  0  0  0  0  0  0  0  0
   -1.3700   -7.5900   33.3240 C   0  0  0  0  0  0  0  0  0  0  0  0
   -0.4960   -6.7620   32.6410 N   0  0  0  0  0  0  0  0  0  0  0  0
   -0.5810   -7.1980   31.3210 C   0  0  0  0  0  0  0  0  0  0  0  0
   -1.4410   -8.2030   31.2140 N   0  0  0  0  0  0  0  0  0  0  0  0
   -1.9450   -8.4510   32.4930 N   0  0  0  0  0  0  0  0  0  0  0  0
    0.2920   -5.6920   33.0120 C   0  0  0  0  0  0  0  0  0  0  0  0
    1.0060   -4.9960   32.0890 C   0  0  0  0  0  0  0  0  0  0  0  0
    0.9420   -5.4600   30.7220 C   0  0  0  0  0  0  0  0  0  0  0  0
    0.1880   -6.5200   30.3490 C   0  0  0  0  0  0  0  0  0  0  0  0
    1.7560   -3.7610   32.4450 C   0  0  0  0  0  0  0  0  0  0  0  0
    2.6920   -3.3580   31.5720 N   0  0  0  0  0  0  0  0  0  0  0  0
    3.3170   -2.2030   31.8480 C   0  0  0  0  0  0  0  0  0  0  0  0
    3.0250   -1.4650   32.9760 C   0  0  0  0  0  0  0  0  0  0  0  0
    2.1060   -1.8670   33.8580 N   0  0  0  0  0  0  0  0  0  0  0  0
    1.4740   -3.0150   33.5870 C   0  0  0  0  0  0  0  0  0  0  0  0
  2  1  1  0
  2  6  2  0
  6  5  1  0
  5  4  2  0
  4 10  1  0
 10  9  2  0
  9  8  1  0
 11  8  1  0
 11 16  2  0
 16 15  1  0
 15 14  2  0
 14 13  1  0
 13 12  2  0
 12 11  1  0
  8  7  2  0
  7  3  1  0
  3  2  1  0
  4  3  1  0
M  END
$$$$
