D68EV3CPROB-x0513_A_308_1_7gpw+B+202+1__LIG
     RDKit          3D

 26 29  0  0  0  0  0  0  0  0999 V2000
   -4.1480   -1.4750    6.3870 F   0  0  0  0  0  0  0  0  0  0  0  0
   -4.5290   -0.4280    7.1090 C   0  0  0  0  0  0  0  0  0  0  0  0
   -3.4580    0.0040    7.7670 F   0  0  0  0  0  0  0  0  0  0  0  0
   -4.8910    0.5240    6.2570 F   0  0  0  0  0  0  0  0  0  0  0  0
   -5.5020   -0.7020    7.9860 O   0  0  0  0  0  0  0  0  0  0  0  0
   -6.7540   -1.2020    7.5260 C   0  0  0  0  0  0  0  0  0  0  0  0
   -7.9070   -0.4860    7.8260 C   0  0  0  0  0  0  0  0  0  0  0  0
   -9.1600   -1.0170    7.5220 C   0  0  0  0  0  0  0  0  0  0  0  0
   -9.2270   -2.2600    6.9070 C   0  0  0  0  0  0  0  0  0  0  0  0
   -8.0740   -2.9570    6.5880 C   0  0  0  0  0  0  0  0  0  0  0  0
   -6.8310   -2.4320    6.8920 C   0  0  0  0  0  0  0  0  0  0  0  0
  -10.4530   -0.3020    7.8350 C   0  0  2  0  0  0  0  0  0  0  0  0
  -10.7030    0.6470    6.7900 O   0  0  0  0  0  0  0  0  0  0  0  0
  -12.0380    1.1760    6.8720 C   0  0  0  0  0  0  0  0  0  0  0  0
  -12.6980    0.8350    8.1920 C   0  0  0  0  0  0  0  0  0  0  0  0
  -11.7800    1.0980    9.3100 N   0  0  0  0  0  0  0  0  0  0  0  0
  -10.5000    0.3970    9.1860 C   0  0  0  0  0  0  0  0  0  0  0  0
  -12.3850    1.2660   10.5570 C   0  0  0  0  0  0  0  0  0  0  0  0
  -11.7790    2.2060   11.3890 N   0  0  0  0  0  0  0  0  0  0  0  0
  -10.6910    3.0200   11.2610 C   0  0  0  0  0  0  0  0  0  0  0  0
  -10.5060    3.7250   12.3440 N   0  0  0  0  0  0  0  0  0  0  0  0
  -11.5100    3.3830   13.2460 N   0  0  0  0  0  0  0  0  0  0  0  0
  -12.2750    2.4710   12.6630 C   0  0  0  0  0  0  0  0  0  0  0  0
  -13.4260    1.7750   13.1000 C   0  0  0  0  0  0  0  0  0  0  0  0
  -14.0200    0.8620   12.2820 C   0  0  0  0  0  0  0  0  0  0  0  0
  -13.5130    0.5860   10.9950 C   0  0  0  0  0  0  0  0  0  0  0  0
  3  2  1  0
  4  2  1  0
  2  1  1  0
  5  2  1  0
  6  5  1  0
  6 11  2  0
 11 10  1  0
 10  9  2  0
  9  8  1  0
 12  8  1  6
 12 17  1  0
 17 16  1  0
 18 16  1  0
 18 26  2  0
 26 25  1  0
 25 24  2  0
 24 23  1  0
 23 22  2  0
 22 21  1  0
 21 20  2  0
 20 19  1  0
 19 18  1  0
 23 19  1  0
 16 15  1  0
 15 14  1  0
 14 13  1  0
 13 12  1  0
  8  7  2  0
  7  6  1  0
M  END
$$$$
