7go4_B_202_1_D68EV3CPROB-x1120+A+308+1__LIG
     RDKit          3D

 11 12  0  0  0  0  0  0  0  0999 V2000
  -11.5280  -23.8510   31.2700 N   0  0  0  0  0  0  0  0  0  0  0  0
  -11.9470  -22.5100   29.3350 N   0  0  0  0  0  0  0  0  0  0  0  0
  -11.6740  -23.6830   32.6370 C   0  0  0  0  0  0  0  0  0  0  0  0
  -12.1080  -22.4110   32.8060 C   0  0  0  0  0  0  0  0  0  0  0  0
  -11.9080  -22.6470   30.6840 C   0  0  0  0  0  0  0  0  0  0  0  0
  -11.6330  -23.5450   28.6260 C   0  0  0  0  0  0  0  0  0  0  0  0
  -11.2060  -24.7840   29.1370 C   0  0  0  0  0  0  0  0  0  0  0  0
  -11.1590  -24.9230   30.5030 C   0  0  0  0  0  0  0  0  0  0  0  0
  -12.2540  -21.7510   31.6030 N   0  0  0  0  0  0  0  0  0  0  0  0
  -11.7930  -23.4770   27.3070 O   0  0  0  0  0  0  0  0  0  0  0  0
  -10.8180  -26.0080   31.1500 O   0  0  0  0  0  0  0  0  0  0  0  0
 10  6  1  0
  6  7  1  0
  7  8  2  0
  8 11  1  0
  8  1  1  0
  1  3  1  0
  3  4  2  0
  4  9  1  0
  9  5  2  0
  5  2  1  0
  6  2  2  0
  1  5  1  0
M  END
$$$$
