D68EV3CPROB-x0691_B_207_1_7gp9+A+201+1__LIG
     RDKit          3D

 22 25  0  0  0  0  0  0  0  0999 V2000
    2.1190   -7.6800   35.1020 O   0  0  0  0  0  0  0  0  0  0  0  0
    0.9230   -7.1620   35.7050 S   0  0  0  0  0  0  0  0  0  0  0  0
   -0.0540   -8.1010   36.1650 O   0  0  0  0  0  0  0  0  0  0  0  0
    0.2370   -5.8500   34.8320 N   0  0  0  0  0  0  0  0  0  0  0  0
    0.0060   -5.8030   33.4410 C   0  0  0  0  0  0  0  0  0  0  0  0
   -0.8110   -6.7710   32.8610 N   0  0  0  0  0  0  0  0  0  0  0  0
   -1.5910   -7.7620   33.3790 C   0  0  0  0  0  0  0  0  0  0  0  0
   -2.0800   -8.5100   32.4320 N   0  0  0  0  0  0  0  0  0  0  0  0
   -1.6460   -7.9910   31.2170 N   0  0  0  0  0  0  0  0  0  0  0  0
   -0.8850   -6.9440   31.4810 C   0  0  0  0  0  0  0  0  0  0  0  0
   -0.1310   -6.0820   30.6520 C   0  0  0  0  0  0  0  0  0  0  0  0
    0.6360   -5.1000   31.2080 C   0  0  0  0  0  0  0  0  0  0  0  0
    0.7070   -4.9470   32.6090 C   0  0  0  0  0  0  0  0  0  0  0  0
   -0.1050   -4.6060   35.5590 C   0  0  0  0  0  0  0  0  0  0  0  0
    0.3820   -4.8060   36.9890 C   0  0  0  0  0  0  0  0  0  0  0  0
    1.3360   -6.0070   37.0170 C   0  0  1  0  0  0  0  0  0  0  0  0
    1.4160   -6.7990   38.3020 C   0  0  0  0  0  0  0  0  0  0  0  0
    0.2830   -7.0390   39.0740 C   0  0  0  0  0  0  0  0  0  0  0  0
    0.3480   -7.8640   40.1870 C   0  0  0  0  0  0  0  0  0  0  0  0
    1.5440   -8.4600   40.5410 C   0  0  0  0  0  0  0  0  0  0  0  0
    2.6730   -8.2200   39.7930 C   0  0  0  0  0  0  0  0  0  0  0  0
    2.6130   -7.3900   38.6850 C   0  0  0  0  0  0  0  0  0  0  0  0
  3  2  2  0
  2  1  2  0
  2 16  1  0
 16 17  1  1
 17 22  2  0
 22 21  1  0
 21 20  2  0
 20 19  1  0
 19 18  2  0
 18 17  1  0
 16 15  1  0
 15 14  1  0
 14  4  1  0
  4  2  1  0
  5  4  1  0
  5 13  2  0
 13 12  1  0
 12 11  2  0
 11 10  1  0
 10  9  2  0
  9  8  1  0
  8  7  2  0
  7  6  1  0
  6  5  1  0
 10  6  1  0
M  END
$$$$
