7gou_B_202_1_7gpw+B+202+1__LIG
     RDKit          3D

 12 12  0  0  0  0  0  0  0  0999 V2000
  -10.0670    0.5890    9.5370 C   0  0  0  0  0  0  0  0  0  0  0  0
   -9.8840    1.8670   10.0350 C   0  0  0  0  0  0  0  0  0  0  0  0
  -10.6850    2.3110   11.0770 C   0  0  0  0  0  0  0  0  0  0  0  0
   -9.3680    3.8130   13.0270 C   0  0  0  0  0  0  0  0  0  0  0  0
  -12.3760    1.9020   12.7430 N   0  0  0  0  0  0  0  0  0  0  0  0
  -13.3650    1.0990   13.4210 C   0  0  0  0  0  0  0  0  0  0  0  0
   -9.7220    4.6750   10.6160 O   0  0  0  0  0  0  0  0  0  0  0  0
  -11.6660    1.4770   11.6420 C   0  0  0  0  0  0  0  0  0  0  0  0
  -11.8430    0.2020   11.1050 C   0  0  0  0  0  0  0  0  0  0  0  0
  -11.0410   -0.2330   10.0600 C   0  0  0  0  0  0  0  0  0  0  0  0
  -11.6850    4.4920   12.0960 O   0  0  0  0  0  0  0  0  0  0  0  0
  -10.4270    3.9670   11.6440 S   0  0  0  0  0  0  0  0  0  0  0  0
  1  2  2  0
  1 10  1  0
  2  3  1  0
  7 12  2  0
 10  9  2  0
  3 12  1  0
  3  8  2  0
 12 11  2  0
 12  4  1  0
  9  8  1  0
  8  5  1  0
  5  6  1  0
M  END
$$$$
