7gqm_A_201_1_7gp7+A+201+1__LIG
     RDKit          3D

 13 14  0  0  0  0  0  0  0  0999 V2000
  -10.9670  -24.6010   29.7500 N   0  0  0  0  0  0  0  0  0  0  0  0
  -10.2760  -23.0480   31.4660 C   0  0  0  0  0  0  0  0  0  0  0  0
  -10.7480  -21.9670   32.2100 C   0  0  0  0  0  0  0  0  0  0  0  0
  -10.3430  -21.7820   33.5230 C   0  0  0  0  0  0  0  0  0  0  0  0
   -9.4560  -22.6560   34.1070 C   0  0  0  0  0  0  0  0  0  0  0  0
   -8.9650  -23.7190   33.3820 C   0  0  0  0  0  0  0  0  0  0  0  0
  -11.0300  -22.2530   29.3140 N   0  0  0  0  0  0  0  0  0  0  0  0
  -11.6860  -23.8000   27.6220 C   0  0  0  0  0  0  0  0  0  0  0  0
  -11.8740  -24.0530   26.2960 O   0  0  0  0  0  0  0  0  0  0  0  0
  -11.4780  -22.5140   28.0780 C   0  0  0  0  0  0  0  0  0  0  0  0
  -10.7910  -23.3170   30.0960 C   0  0  0  0  0  0  0  0  0  0  0  0
  -11.4110  -24.8250   28.5070 C   0  0  0  0  0  0  0  0  0  0  0  0
   -9.3670  -23.9140   32.0690 C   0  0  0  0  0  0  0  0  0  0  0  0
  9  8  1  0
 10  8  2  0
 10  7  1  0
  8 12  1  0
  7 11  2  0
 12  1  2  0
 11  1  1  0
 11  2  1  0
  2  3  2  0
  2 13  1  0
  3  4  1  0
 13  6  2  0
  4  5  2  0
  6  5  1  0
M  END
$$$$
