7goo_B_201_1_D68EV3CPROB-x1120+A+308+1_CLIG
     RDKit          3D

 15 16  0  0  0  0  0  0  0  0999 V2000
  -13.1660  -23.8320   29.6720 N   0  0  0  0  0  0  0  0  0  0  0  0
  -13.6950  -23.8540   30.9030 C   0  0  0  0  0  0  0  0  0  0  0  0
  -14.7580  -24.9520   31.1080 C   0  0  0  0  0  0  0  0  0  0  0  0
  -12.5810  -21.4920   34.0850 C   0  0  0  0  0  0  0  0  0  0  0  0
  -11.7250  -22.1710   35.1350 C   0  0  0  0  0  0  0  0  0  0  0  0
  -10.4650  -21.3760   35.4120 C   0  0  0  0  0  0  0  0  0  0  0  0
  -10.4460  -21.2850   32.9260 C   0  0  0  0  0  0  0  0  0  0  0  0
  -13.3470  -23.0660   31.9320 N   0  0  0  0  0  0  0  0  0  0  0  0
  -11.5240  -22.9910   28.1100 C   0  0  0  0  0  0  0  0  0  0  0  0
  -15.5690  -24.7660   32.2620 O   0  0  0  0  0  0  0  0  0  0  0  0
  -12.1860  -22.9410   29.4510 C   0  0  0  0  0  0  0  0  0  0  0  0
  -11.7630  -22.0760   30.4450 C   0  0  0  0  0  0  0  0  0  0  0  0
  -12.3600  -22.1860   31.7030 C   0  0  0  0  0  0  0  0  0  0  0  0
  -10.0760  -20.5630   34.1990 C   0  0  0  0  0  0  0  0  0  0  0  0
  -11.8960  -21.4760   32.7900 N   0  0  0  0  0  0  0  0  0  0  0  0
  9 11  1  0
 12 11  1  0
 12 13  2  0
 11  1  2  0
  7 14  1  0
  7 15  1  0
 14  6  1  0
  1  2  1  0
 13 15  1  0
 13  8  1  0
 15  4  1  0
  2  8  2  0
  2  3  1  0
  6  5  1  0
  4  5  1  0
  3 10  1  0
M  END
$$$$
7goo_B_201_1_D68EV3CPROB-x1120+A+308+1_DLIG
     RDKit          3D

 15 16  0  0  0  0  0  0  0  0999 V2000
  -13.1640  -23.8310   29.6750 N   0  0  0  0  0  0  0  0  0  0  0  0
  -13.6920  -23.8530   30.9070 C   0  0  0  0  0  0  0  0  0  0  0  0
  -14.7550  -24.9490   31.1140 C   0  0  0  0  0  0  0  0  0  0  0  0
  -12.5780  -21.4900   34.0870 C   0  0  0  0  0  0  0  0  0  0  0  0
  -11.7210  -22.1680   35.1370 C   0  0  0  0  0  0  0  0  0  0  0  0
  -10.4620  -21.3720   35.4140 C   0  0  0  0  0  0  0  0  0  0  0  0
  -10.4430  -21.2820   32.9270 C   0  0  0  0  0  0  0  0  0  0  0  0
  -13.3440  -23.0640   31.9360 N   0  0  0  0  0  0  0  0  0  0  0  0
  -11.5260  -22.9850   28.1100 C   0  0  0  0  0  0  0  0  0  0  0  0
  -15.5570  -24.7630   32.2740 O   0  0  0  0  0  0  0  0  0  0  0  0
  -12.1850  -22.9390   29.4530 C   0  0  0  0  0  0  0  0  0  0  0  0
  -11.7610  -22.0730   30.4470 C   0  0  0  0  0  0  0  0  0  0  0  0
  -12.3580  -22.1840   31.7060 C   0  0  0  0  0  0  0  0  0  0  0  0
  -10.0730  -20.5600   34.2010 C   0  0  0  0  0  0  0  0  0  0  0  0
  -11.8930  -21.4720   32.7910 N   0  0  0  0  0  0  0  0  0  0  0  0
  9 11  1  0
 12 11  1  0
 12 13  2  0
 11  1  2  0
  7 14  1  0
  7 15  1  0
 14  6  1  0
  1  2  1  0
 13 15  1  0
 13  8  1  0
 15  4  1  0
  2  8  2  0
  2  3  1  0
  6  5  1  0
  4  5  1  0
  3 10  1  0
M  END
$$$$
