7gqb_B_201_1_7gon+B+201+1__LIG
     RDKit          3D

 14 15  0  0  0  0  0  0  0  0999 V2000
   14.5940    0.6870   14.6740 N   0  0  0  0  0  0  0  0  0  0  0  0
   13.9280   -0.3850   13.9130 C   0  0  0  0  0  0  0  0  0  0  0  0
   13.4250   -1.5090   14.8120 C   0  0  0  0  0  0  0  0  0  0  0  0
   14.7540   -0.8250   12.7090 C   0  0  0  0  0  0  0  0  0  0  0  0
   15.2730   -2.1100   12.5990 C   0  0  0  0  0  0  0  0  0  0  0  0
   16.0000   -2.4850   11.4840 C   0  0  0  0  0  0  0  0  0  0  0  0
   16.2280   -1.5840   10.4690 C   0  0  0  0  0  0  0  0  0  0  0  0
   15.7180   -0.3090   10.5600 C   0  0  0  0  0  0  0  0  0  0  0  0
   14.9800    0.0690   11.6690 C   0  0  0  0  0  0  0  0  0  0  0  0
   12.1930   -2.0990   14.5710 C   0  0  0  0  0  0  0  0  0  0  0  0
   11.7290   -3.1240   15.3790 C   0  0  0  0  0  0  0  0  0  0  0  0
   12.4840   -3.5690   16.4360 C   0  0  0  0  0  0  0  0  0  0  0  0
   13.7100   -2.9880   16.6950 C   0  0  0  0  0  0  0  0  0  0  0  0
   14.1810   -1.9680   15.8850 C   0  0  0  0  0  0  0  0  0  0  0  0
 11 12  1  0
 11 10  2  0
 12 13  2  0
 10  3  1  0
 13 14  1  0
  7  6  1  0
  7  8  2  0
  6  5  2  0
  8  9  1  0
  3 14  2  0
  3  2  1  0
  5  4  1  0
  9  4  2  0
  4  2  1  0
  2  1  1  0
M  END
$$$$
