D68EV3CPROB-x1462_B_301_1_7gp9+A+201+1__LIG
     RDKit          3D

 16 16  0  0  0  0  0  0  0  0999 V2000
   -2.0410   -8.6000   31.6820 O   0  0  0  0  0  0  0  0  0  0  0  0
   -1.4200   -7.7220   32.2170 C   0  0  0  0  0  0  0  0  0  0  0  0
   -1.2920   -7.6350   33.5390 N   0  0  0  0  0  0  0  0  0  0  0  0
   -0.7620   -6.6740   31.3750 C   0  0  0  0  0  0  0  0  0  0  0  0
   -0.7170   -5.3450   31.7870 C   0  0  0  0  0  0  0  0  0  0  0  0
   -0.1330   -4.3850   30.9800 C   0  0  0  0  0  0  0  0  0  0  0  0
    0.4160   -4.7420   29.7580 C   0  0  0  0  0  0  0  0  0  0  0  0
   -0.2040   -7.0290   30.1460 C   0  0  0  0  0  0  0  0  0  0  0  0
    0.4120   -6.0690   29.3360 C   0  0  0  0  0  0  0  0  0  0  0  0
    1.1850   -6.3860   28.1270 C   0  0  0  0  0  0  0  0  0  0  0  0
    2.1220   -5.5580   27.6830 C   0  0  0  0  0  0  0  0  0  0  0  0
    3.4620   -5.6500   28.2760 C   0  0  0  0  0  0  0  0  0  0  0  0
    3.8360   -6.5570   28.9720 O   0  0  0  0  0  0  0  0  0  0  0  0
    4.2910   -4.6810   27.8590 O   0  0  0  0  0  0  0  0  0  0  0  0
    5.1830   -4.1000   28.8680 C   0  0  0  0  0  0  0  0  0  0  0  0
    4.4570   -3.9010   30.1990 C   0  0  0  0  0  0  0  0  0  0  0  0
 16 15  1  0
 15 14  1  0
 14 12  1  0
 13 12  2  0
 12 11  1  0
 11 10  2  0
 10  9  1  0
  9  7  1  0
  7  6  2  0
  6  5  1  0
  5  4  2  0
  4  2  1  0
  3  2  1  0
  2  1  2  0
  8  4  1  0
  9  8  2  0
M  END
$$$$
