7gq9_A_201_1_7gq1+B+202+1__LIG
     RDKit          3D

 14 15  0  0  0  0  0  0  0  0999 V2000
    3.1640  -15.4700    7.7720 C   0  0  0  0  0  0  0  0  0  0  0  0
    2.0930  -15.0990    6.9590 C   0  0  0  0  0  0  0  0  0  0  0  0
    1.9990  -13.8150    6.4510 C   0  0  0  0  0  0  0  0  0  0  0  0
    3.2040  -16.8070    8.4130 C   0  0  0  0  0  0  0  0  0  0  0  0
    4.3120  -17.5570    8.4390 C   0  0  0  0  0  0  0  0  0  0  0  0
    1.9090  -18.8820    8.8700 C   0  0  0  0  0  0  0  0  0  0  0  0
    3.0850  -19.4380    9.5270 N   0  0  0  0  0  0  0  0  0  0  0  0
    1.9040  -11.0270    5.6680 C   0  0  0  0  0  0  0  0  0  0  0  0
    2.9680  -11.5450    6.4740 O   0  0  0  0  0  0  0  0  0  0  0  0
    2.9800  -12.8860    6.7480 C   0  0  0  0  0  0  0  0  0  0  0  0
    1.9200  -17.3660    9.0180 C   0  0  0  0  0  0  0  0  0  0  0  0
    4.0860  -13.2530    7.4980 C   0  0  0  0  0  0  0  0  0  0  0  0
    4.1740  -14.5320    8.0090 C   0  0  0  0  0  0  0  0  0  0  0  0
    4.3490  -18.9380    8.9930 C   0  0  0  0  0  0  0  0  0  0  0  0
  7 14  1  0
  7  6  1  0
 14  5  1  0
  6 11  1  0
  5  4  2  0
 11  4  1  0
  4  1  1  0
  1  2  2  0
  1 13  1  0
  2  3  1  0
 13 12  2  0
  3 10  2  0
 12 10  1  0
 10  9  1  0
  9  8  1  0
M  END
$$$$
