D68EV3CPROB-x1463_A_308_1_7gp9+A+201+1__LIG
     RDKit          3D

 20 21  0  0  0  0  0  0  0  0999 V2000
   -2.0160   -3.8560   31.6970 O   0  0  0  0  0  0  0  0  0  0  0  0
   -0.9890   -2.8990   31.9520 S   0  0  0  0  0  0  0  0  0  0  0  0
   -0.9420   -2.2360   33.2160 O   0  0  0  0  0  0  0  0  0  0  0  0
   -1.0390   -1.7430   30.8030 N   0  0  0  0  0  0  0  0  0  0  0  0
   -1.3090   -2.1020   29.3970 C   0  0  0  0  0  0  0  0  0  0  0  0
   -0.1770   -1.5770   28.5490 C   0  0  0  0  0  0  0  0  0  0  0  0
   -0.1250   -0.1510   28.5470 O   0  0  0  0  0  0  0  0  0  0  0  0
   -0.3860    0.3740   29.8490 C   0  0  0  0  0  0  0  0  0  0  0  0
   -0.0810   -0.6280   30.9280 C   0  0  0  0  0  0  0  0  0  0  0  0
    0.4530   -3.6230   31.7380 N   0  0  0  0  0  0  0  0  0  0  0  0
    0.6900   -4.5500   30.6250 C   0  0  0  0  0  0  0  0  0  0  0  0
    1.4620   -5.7650   31.0830 C   0  0  0  0  0  0  0  0  0  0  0  0
    0.5150   -6.5340   31.9520 C   0  0  0  0  0  0  0  0  0  0  0  0
   -0.3120   -7.3570   31.3010 N   0  0  0  0  0  0  0  0  0  0  0  0
   -1.2440   -7.9490   32.0550 C   0  0  0  0  0  0  0  0  0  0  0  0
   -2.0940   -8.7200   31.4470 O   0  0  0  0  0  0  0  0  0  0  0  0
   -1.3430   -7.7430   33.4530 C   0  0  0  0  0  0  0  0  0  0  0  0
    0.5220   -6.2760   33.2660 N   0  0  0  0  0  0  0  0  0  0  0  0
   -0.4080   -6.8910   34.0150 C   0  0  0  0  0  0  0  0  0  0  0  0
   -0.3680   -6.6230   35.4880 C   0  0  0  0  0  0  0  0  0  0  0  0
 20 19  1  0
 19 17  2  0
 17 15  1  0
 16 15  1  0
 15 14  2  0
 14 13  1  0
 13 12  1  0
 12 11  1  0
 11 10  1  0
 10  2  1  0
  3  2  2  0
  2  1  2  0
  4  2  1  0
  4  9  1  0
  9  8  1  0
  8  7  1  0
  7  6  1  0
  6  5  1  0
  5  4  1  0
 18 13  2  0
 19 18  1  0
M  END
$$$$
