7gqp_A_201_1_7gq5+A+201+1__LIG
     RDKit          3D

  7  7  0  0  0  0  0  0  0  0999 V2000
  -11.0940  -26.4990   27.8420 N   0  0  0  0  0  0  0  0  0  0  0  0
   -9.7360  -25.4980   30.9480 N   0  0  0  0  0  0  0  0  0  0  0  0
  -10.2480  -25.4860   29.9280 C   0  0  0  0  0  0  0  0  0  0  0  0
  -10.8880  -25.3990   28.6440 C   0  0  0  0  0  0  0  0  0  0  0  0
  -11.3800  -24.2890   28.0250 C   0  0  0  0  0  0  0  0  0  0  0  0
  -11.8980  -24.7070   26.8330 N   0  0  0  0  0  0  0  0  0  0  0  0
  -11.7060  -26.0280   26.7620 C   0  0  0  0  0  0  0  0  0  0  0  0
  2  3  3  0
  3  4  1  0
  5  4  2  0
  5  6  1  0
  4  1  1  0
  6  7  2  0
  1  7  1  0
M  END
$$$$
