7gpz_B_201_1_7gpz+B+201+1__LIG
     RDKit          3D

 10 10  0  0  0  0  0  0  0  0999 V2000
  -10.8260   -1.4520   36.4120 N   0  0  0  0  0  0  0  0  0  0  0  0
  -15.0340   -4.7490   38.7320 C   0  0  0  0  0  0  0  0  0  0  0  0
  -10.9560   -0.1570   36.6490 C   0  0  0  0  0  0  0  0  0  0  0  0
  -11.9460   -2.0080   36.9380 N   0  0  0  0  0  0  0  0  0  0  0  0
  -12.1470    0.1050   37.3200 C   0  0  0  0  0  0  0  0  0  0  0  0
  -13.8810   -3.9640   38.4520 O   0  0  0  0  0  0  0  0  0  0  0  0
  -12.7570   -1.0970   37.4920 C   0  0  0  0  0  0  0  0  0  0  0  0
  -12.1600   -3.4510   36.8670 C   0  0  0  0  0  0  0  0  0  0  0  0
  -13.6170   -3.8170   37.0610 C   0  0  0  0  0  0  0  0  0  0  0  0
  -12.8130    1.7670   37.8920 Br  0  0  0  0  0  0  0  0  0  0  0  0
  2  6  1  0
  6  9  1  0
  3  1  2  0
  3  5  1  0
  1  4  1  0
  5 10  1  0
  5  7  2  0
  9  8  1  0
  4  7  1  0
  4  8  1  0
M  END
$$$$
