D68EV3CPROB-x1456_B_301_1_7gp9+A+201+1__LIG
     RDKit          3D

 20 21  0  0  0  0  0  0  0  0999 V2000
   -2.4510   -2.9470   31.1640 O   0  0  0  0  0  0  0  0  0  0  0  0
   -1.3690   -2.0300   31.3380 S   0  0  0  0  0  0  0  0  0  0  0  0
   -1.2360   -1.3300   32.5770 O   0  0  0  0  0  0  0  0  0  0  0  0
   -1.3470   -0.8700   30.1320 C   0  0  0  0  0  0  0  0  0  0  0  0
   -1.9490   -1.0440   28.8920 N   0  0  0  0  0  0  0  0  0  0  0  0
   -1.6920    0.1320   28.2650 N   0  0  0  0  0  0  0  0  0  0  0  0
   -2.1950    0.3480   26.9150 C   0  0  0  0  0  0  0  0  0  0  0  0
   -0.9660    1.0090   29.0360 C   0  0  0  0  0  0  0  0  0  0  0  0
   -0.7370    0.3910   30.2280 C   0  0  0  0  0  0  0  0  0  0  0  0
   -0.0010   -2.8600   31.1110 N   0  0  0  0  0  0  0  0  0  0  0  0
    0.1490   -3.7700   29.9690 C   0  0  0  0  0  0  0  0  0  0  0  0
    0.9760   -4.9900   30.3470 C   0  0  0  0  0  0  0  0  0  0  0  0
    0.2500   -5.8320   31.3520 C   0  0  0  0  0  0  0  0  0  0  0  0
   -0.5620   -6.7840   30.8720 N   0  0  0  0  0  0  0  0  0  0  0  0
   -1.1640   -7.5500   31.7990 C   0  0  0  0  0  0  0  0  0  0  0  0
   -1.9220   -8.5360   31.3830 O   0  0  0  0  0  0  0  0  0  0  0  0
   -0.9750   -7.3650   33.1780 C   0  0  0  0  0  0  0  0  0  0  0  0
    0.5060   -5.5770   32.6410 N   0  0  0  0  0  0  0  0  0  0  0  0
   -0.1070   -6.3510   33.5520 C   0  0  0  0  0  0  0  0  0  0  0  0
    0.2240   -6.0880   34.9850 C   0  0  0  0  0  0  0  0  0  0  0  0
 20 19  1  0
 19 17  2  0
 17 15  1  0
 16 15  1  0
 15 14  2  0
 14 13  1  0
 13 12  1  0
 12 11  1  0
 11 10  1  0
 10  2  1  0
  3  2  2  0
  2  1  2  0
  4  2  1  0
  4  9  1  0
  9  8  2  0
  8  6  1  0
  7  6  1  0
  6  5  1  0
  5  4  2  0
 18 13  2  0
 19 18  1  0
M  END
$$$$
