D68EV3CPROB-x1157_A_401_1_D68EV3CPROB-x0798+A+308+1__LIG
     RDKit          3D

 15 16  0  0  0  0  0  0  0  0999 V2000
  -20.0750   -1.5280   15.9270 Cl  0  0  0  0  0  0  0  0  0  0  0  0
  -20.1710   -2.3620   17.4840 C   0  0  0  0  0  0  0  0  0  0  0  0
  -21.5710   -2.7000   17.9370 C   0  0  0  0  0  0  0  0  0  0  0  0
  -21.8690   -3.8680   18.1760 O   0  0  0  0  0  0  0  0  0  0  0  0
  -22.4250   -1.6900   18.0690 N   0  0  0  0  0  0  0  0  0  0  0  0
  -23.6380   -1.8040   18.8630 C   0  0  0  0  0  0  0  0  0  0  0  0
  -24.8120   -2.3240   18.0720 C   0  0  0  0  0  0  0  0  0  0  0  0
  -25.4280   -1.4280   17.2670 N   0  0  0  0  0  0  0  0  0  0  0  0
  -26.4710   -1.8890   16.5700 C   0  0  0  0  0  0  0  0  0  0  0  0
  -27.2480   -1.1580   15.7130 N   0  0  0  0  0  0  0  0  0  0  0  0
  -28.2290   -1.9830   15.2190 C   0  0  0  0  0  0  0  0  0  0  0  0
  -28.0980   -3.2340   15.7300 C   0  0  0  0  0  0  0  0  0  0  0  0
  -26.9780   -3.2110   16.6050 C   0  0  0  0  0  0  0  0  0  0  0  0
  -26.3090   -4.1030   17.4400 C   0  0  0  0  0  0  0  0  0  0  0  0
  -25.2210   -3.6640   18.1760 C   0  0  0  0  0  0  0  0  0  0  0  0
  4  3  2  0
  3  2  1  0
  2  1  1  0
  5  3  1  0
  6  5  1  0
  7  6  1  0
  7 15  2  0
 15 14  1  0
 14 13  2  0
 13 12  1  0
 12 11  2  0
 11 10  1  0
 10  9  1  0
 13  9  1  0
  9  8  2  0
  8  7  1  0
M  END
$$$$
