7gnw_A_201_1_7gp7+A+201+1__LIG
     RDKit          3D

 15 15  0  0  0  0  0  0  0  0999 V2000
  -11.4360  -25.0100   12.7860 C   0  0  0  0  0  0  0  0  0  0  0  0
  -12.8060  -24.9010   12.5540 C   0  0  0  0  0  0  0  0  0  0  0  0
  -13.7060  -25.4180   13.4650 C   0  0  0  0  0  0  0  0  0  0  0  0
  -13.2450  -26.0380   14.6320 C   0  0  0  0  0  0  0  0  0  0  0  0
  -14.7800  -25.4730   16.3540 C   0  0  0  0  0  0  0  0  0  0  0  0
  -10.4720  -24.4430   11.8050 C   0  0  0  0  0  0  0  0  0  0  0  0
  -10.5560  -27.8790   15.8760 C   0  0  0  0  0  0  0  0  0  0  0  0
  -11.4930  -26.8070   15.9970 O   0  0  0  0  0  0  0  0  0  0  0  0
  -11.8650  -26.1610   14.8520 C   0  0  0  0  0  0  0  0  0  0  0  0
  -10.9690  -25.6470   13.9310 C   0  0  0  0  0  0  0  0  0  0  0  0
  -14.1490  -26.4890   15.5760 O   0  0  0  0  0  0  0  0  0  0  0  0
  -15.0630  -25.3940   13.2990 O   0  0  0  0  0  0  0  0  0  0  0  0
  -15.6040  -26.1180   12.1940 C   0  0  0  0  0  0  0  0  0  0  0  0
  -10.9390  -24.3340   10.5900 O   0  0  0  0  0  0  0  0  0  0  0  0
   -9.3340  -24.1230   12.1210 O   0  0  0  0  0  0  0  0  0  0  0  0
  5 11  1  0
 11  4  1  0
  8  7  1  0
  8  9  1  0
 12 13  1  0
 12  3  1  0
  4  9  1  0
  4  3  2  0
  9 10  2  0
  3  2  1  0
  2  1  2  0
 10  1  1  0
  1  6  1  0
  6 14  2  0
  6 15  1  0
M  END
$$$$
