7gp5_B_201_1_7gon+B+201+1__LIG
     RDKit          3D

 13 14  0  0  0  0  0  0  0  0999 V2000
   12.7440    0.7180   16.1060 N   0  0  0  0  0  0  0  0  0  0  0  0
   12.5900   -0.7050   16.0350 C   0  0  0  0  0  0  0  0  0  0  0  0
   11.6540   -1.2720   15.1690 C   0  0  0  0  0  0  0  0  0  0  0  0
   11.4900   -2.6490   15.1410 C   0  0  0  0  0  0  0  0  0  0  0  0
   12.2530   -3.4600   15.9570 C   0  0  0  0  0  0  0  0  0  0  0  0
   13.1920   -2.9000   16.8020 C   0  0  0  0  0  0  0  0  0  0  0  0
   10.6750    1.5410   15.4560 O   0  0  0  0  0  0  0  0  0  0  0  0
   11.8240    1.7130   15.8270 C   0  0  0  0  0  0  0  0  0  0  0  0
   12.5200    3.0260   16.0650 C   0  0  0  0  0  0  0  0  0  0  0  0
   13.8690    2.5190   16.4530 C   0  0  0  0  0  0  0  0  0  0  0  0
   15.0370    3.4060   16.7340 C   0  0  0  0  0  0  0  0  0  0  0  0
   13.9670    1.2450   16.4870 N   0  0  0  0  0  0  0  0  0  0  0  0
   13.3680   -1.5270   16.8470 C   0  0  0  0  0  0  0  0  0  0  0  0
 11 10  1  0
 10  9  1  0
 10 12  2  0
  9  8  1  0
 12  1  1  0
  8  1  1  0
  8  7  2  0
  1  2  1  0
  2 13  1  0
  2  3  2  0
 13  6  2  0
  3  4  1  0
  6  5  1  0
  4  5  2  0
M  END
$$$$
