7go0_B_201_1_7gon+B+201+1__LIG
     RDKit          3D

 13 14  0  0  0  0  0  0  0  0999 V2000
   14.3510   -1.9530   16.2190 C   0  0  0  0  0  0  0  0  0  0  0  0
   13.8480    3.2400   16.0770 C   0  0  0  0  0  0  0  0  0  0  0  0
   14.0150    1.7470   16.1100 C   0  0  0  0  0  0  0  0  0  0  0  0
   13.4210    1.1140   14.9220 N   0  0  0  0  0  0  0  0  0  0  0  0
   14.0390   -0.1350   14.4600 C   0  0  0  0  0  0  0  0  0  0  0  0
   13.5630   -1.3520   15.2130 C   0  0  0  0  0  0  0  0  0  0  0  0
   12.3250   -1.9240   14.9130 C   0  0  0  0  0  0  0  0  0  0  0  0
   11.8660   -3.0590   15.5680 C   0  0  0  0  0  0  0  0  0  0  0  0
   12.6280   -3.6660   16.5540 C   0  0  0  0  0  0  0  0  0  0  0  0
   13.8630   -3.1060   16.8690 C   0  0  0  0  0  0  0  0  0  0  0  0
   14.8160   -3.4930   17.7820 N   0  0  0  0  0  0  0  0  0  0  0  0
   15.8740   -2.6220   17.7230 C   0  0  0  0  0  0  0  0  0  0  0  0
   15.6400   -1.6680   16.7890 C   0  0  0  0  0  0  0  0  0  0  0  0
  2  3  1  0
  3  4  1  0
  4  5  1  0
  5  6  1  0
  7  6  2  0
  7  8  1  0
  6  1  1  0
  8  9  2  0
  1 10  2  0
  1 13  1  0
  9 10  1  0
 10 11  1  0
 13 12  2  0
 11 12  1  0
M  END
$$$$
