7gpk_B_201_1_7gon+B+201+1__LIG
     RDKit          3D

 13 14  0  0  0  0  0  0  0  0999 V2000
   15.2030    1.7170   13.1750 C   0  0  0  0  0  0  0  0  0  0  0  0
   14.1140    2.7470   12.9700 C   0  0  0  0  0  0  0  0  0  0  0  0
   13.6310    3.2750   14.3020 C   0  0  0  0  0  0  0  0  0  0  0  0
   13.9670    2.3030   15.4150 C   0  0  0  0  0  0  0  0  0  0  0  0
   13.7310    0.0090   16.1270 C   0  0  0  0  0  0  0  0  0  0  0  0
   13.0090   -1.2780   15.8360 C   0  0  0  0  0  0  0  0  0  0  0  0
   13.3380   -2.5580   16.3590 C   0  0  0  0  0  0  0  0  0  0  0  0
   12.4950   -3.5220   15.9730 C   0  0  0  0  0  0  0  0  0  0  0  0
   11.9080   -1.3250   15.0380 C   0  0  0  0  0  0  0  0  0  0  0  0
   14.6720    0.5140   13.9550 C   0  0  0  0  0  0  0  0  0  0  0  0
   13.7030    0.9240   14.9910 N   0  0  0  0  0  0  0  0  0  0  0  0
   14.5750    3.8200   12.1510 O   0  0  0  0  0  0  0  0  0  0  0  0
   11.2880   -2.8900   14.9380 S   0  0  0  0  0  0  0  0  0  0  0  0
  2 12  1  0
  3  2  1  0
  4  3  1  0
 11  4  1  0
  6  5  1  0
  7  6  1  0
  8  7  2  0
 13  8  1  0
  9 13  1  0
  5 11  1  0
 10 11  1  0
  1 10  1  0
  2  1  1  0
  6  9  2  0
M  END
$$$$
