7gom_B_201_1_7gom+B+201+1__LIG
     RDKit          3D

 14 14  0  0  0  0  0  0  0  0999 V2000
  -14.4190  -22.8060   24.9670 C   0  0  0  0  0  0  0  0  0  0  0  0
  -15.5570  -22.0690   24.4750 C   0  0  0  0  0  0  0  0  0  0  0  0
  -10.2260  -26.5910   31.1170 C   0  0  0  0  0  0  0  0  0  0  0  0
  -10.9350  -25.1710   29.3540 C   0  0  0  0  0  0  0  0  0  0  0  0
  -11.4440  -25.5510   27.9880 C   0  0  0  0  0  0  0  0  0  0  0  0
  -12.3140  -24.0550   26.2820 C   0  0  0  0  0  0  0  0  0  0  0  0
  -13.5440  -24.6890   26.1850 C   0  0  0  0  0  0  0  0  0  0  0  0
  -14.5950  -24.0620   25.5410 C   0  0  0  0  0  0  0  0  0  0  0  0
  -13.1620  -22.2080   25.0100 C   0  0  0  0  0  0  0  0  0  0  0  0
  -12.1180  -22.8280   25.6710 C   0  0  0  0  0  0  0  0  0  0  0  0
  -16.4860  -21.5050   24.1230 N   0  0  0  0  0  0  0  0  0  0  0  0
  -10.0350  -26.0560   29.7850 O   0  0  0  0  0  0  0  0  0  0  0  0
  -11.2930  -24.2140   29.9870 O   0  0  0  0  0  0  0  0  0  0  0  0
  -11.2550  -24.5010   27.0350 O   0  0  0  0  0  0  0  0  0  0  0  0
  7  8  1  0
  7  6  2  0
  8  1  2  0
 14  6  1  0
 14  5  1  0
  6 10  1  0
 12  3  1  0
 12  4  1  0
  1  2  1  0
  1  9  1  0
  5  4  1  0
  2 11  3  0
  4 13  2  0
 10  9  2  0
M  END
$$$$
