7goj_A_201_1_D68EV3CPROB-x1120+A+308+1__LIG
     RDKit          3D

 15 17  0  0  0  0  0  0  0  0999 V2000
   -8.9700  -26.9830   32.3170 N   0  0  0  0  0  0  0  0  0  0  0  0
   -9.8190  -24.3360   33.3590 N   0  0  0  0  0  0  0  0  0  0  0  0
  -10.2890  -24.9040   32.2010 C   0  0  0  0  0  0  0  0  0  0  0  0
  -10.4410  -23.2050   33.3900 C   0  0  0  0  0  0  0  0  0  0  0  0
  -10.3570  -22.1310   34.3960 C   0  0  0  0  0  0  0  0  0  0  0  0
  -11.7170  -21.5220   34.7680 C   0  0  0  0  0  0  0  0  0  0  0  0
  -11.1030  -20.1280   34.5980 C   0  0  0  0  0  0  0  0  0  0  0  0
  -10.3210  -26.7760   30.5610 N   0  0  0  0  0  0  0  0  0  0  0  0
  -11.3040  -26.2590   29.6120 C   0  0  0  0  0  0  0  0  0  0  0  0
  -11.2650  -23.0210   32.3440 O   0  0  0  0  0  0  0  0  0  0  0  0
   -9.6760  -27.9840   30.4400 C   0  0  0  0  0  0  0  0  0  0  0  0
   -8.8610  -28.0900   31.5120 C   0  0  0  0  0  0  0  0  0  0  0  0
   -9.8580  -26.2040   31.7150 C   0  0  0  0  0  0  0  0  0  0  0  0
   -9.9490  -20.7750   33.8110 C   0  0  0  0  0  0  0  0  0  0  0  0
  -11.1530  -24.1860   31.5430 N   0  0  0  0  0  0  0  0  0  0  0  0
 14  7  1  0
 14  5  1  0
  7  6  1  0
 10 15  1  0
 10  4  1  0
 15  3  2  0
  9  8  1  0
  5  4  1  0
  5  6  1  0
  4  2  2  0
  3  2  1  0
  3 13  1  0
  8 13  1  0
  8 11  1  0
 13  1  2  0
 11 12  2  0
  1 12  1  0
M  END
$$$$
