D68EV3CPROB-x0798_A_308_1_D68EV3CPROB-x0798+A+308+1__LIG
     RDKit          3D

 19 21  0  0  0  0  0  0  0  0999 V2000
  -23.4000   -0.6260   15.8170 O   0  0  0  0  0  0  0  0  0  0  0  0
  -23.7130   -1.5850   16.5000 C   0  0  0  0  0  0  0  0  0  0  0  0
  -25.0450   -2.2000   16.4950 C   0  0  0  0  0  0  0  0  0  0  0  0
  -26.0580   -1.7140   15.6670 C   0  0  0  0  0  0  0  0  0  0  0  0
  -27.2860   -2.3570   15.6300 C   0  0  0  0  0  0  0  0  0  0  0  0
  -27.5160   -3.4700   16.4110 C   0  0  0  0  0  0  0  0  0  0  0  0
  -26.5340   -3.9510   17.2630 C   0  0  0  0  0  0  0  0  0  0  0  0
  -25.2930   -3.3220   17.3060 C   0  0  0  0  0  0  0  0  0  0  0  0
  -24.2720   -3.8160   18.1070 N   0  0  0  0  0  0  0  0  0  0  0  0
  -22.7770   -2.1900   17.3490 N   0  0  0  0  0  0  0  0  0  0  0  0
  -23.0200   -3.2900   18.1640 C   0  0  0  0  0  0  0  0  0  0  0  0
  -22.1580   -3.7780   18.8820 O   0  0  0  0  0  0  0  0  0  0  0  0
  -21.4140   -1.6360   17.3580 C   0  0  0  0  0  0  0  0  0  0  0  0
  -20.6000   -1.9930   16.1350 C   0  0  0  0  0  0  0  0  0  0  0  0
  -19.7010   -1.0890   15.6020 C   0  0  0  0  0  0  0  0  0  0  0  0
  -18.9500   -1.4510   14.5010 C   0  0  0  0  0  0  0  0  0  0  0  0
  -19.0390   -2.6440   13.9020 N   0  0  0  0  0  0  0  0  0  0  0  0
  -19.9150   -3.5110   14.4210 C   0  0  0  0  0  0  0  0  0  0  0  0
  -20.7070   -3.2320   15.5210 C   0  0  0  0  0  0  0  0  0  0  0  0
 12 11  2  0
 11  9  1  0
  9  8  1  0
  8  7  2  0
  7  6  1  0
  6  5  2  0
  5  4  1  0
  4  3  2  0
  8  3  1  0
  3  2  1  0
  2  1  2  0
 10  2  1  0
 11 10  1  0
 13 10  1  0
 14 13  1  0
 14 19  2  0
 19 18  1  0
 18 17  2  0
 17 16  1  0
 16 15  2  0
 15 14  1  0
M  END
$$$$
