7gqk_B_201_1_7gon+B+201+1__LIG
     RDKit          3D

 16 17  0  0  0  0  0  0  0  0999 V2000
   13.0050    3.2100   15.8760 C   0  0  0  0  0  0  0  0  0  0  0  0
   13.9030    3.7920   16.9560 C   0  0  0  0  0  0  0  0  0  0  0  0
   11.9520    0.9770   15.9750 C   0  0  0  0  0  0  0  0  0  0  0  0
   12.1020   -0.5130   16.0000 C   0  0  0  0  0  0  0  0  0  0  0  0
   11.4310   -1.3000   15.0640 C   0  0  0  0  0  0  0  0  0  0  0  0
   12.2810   -3.2910   16.0890 C   0  0  0  0  0  0  0  0  0  0  0  0
   13.0610    1.7430   15.8710 N   0  0  0  0  0  0  0  0  0  0  0  0
   16.2910    3.8670   17.8320 C   0  0  0  0  0  0  0  0  0  0  0  0
   15.5900    4.3610   18.9640 O   0  0  0  0  0  0  0  0  0  0  0  0
   15.3400    3.3100   16.7840 C   0  0  0  0  0  0  0  0  0  0  0  0
   12.9610   -2.5250   17.0090 C   0  0  0  0  0  0  0  0  0  0  0  0
   12.8750   -1.1420   16.9710 C   0  0  0  0  0  0  0  0  0  0  0  0
   15.3540    1.7860   16.7910 C   0  0  0  0  0  0  0  0  0  0  0  0
   14.4330    1.2380   15.7080 C   0  0  0  0  0  0  0  0  0  0  0  0
   11.5230   -2.6810   15.1130 C   0  0  0  0  0  0  0  0  0  0  0  0
   10.8330    1.4640   15.9980 O   0  0  0  0  0  0  0  0  0  0  0  0
  8 10  1  0
  8  9  1  0
 10  2  1  0
 10 13  1  0
  2  1  1  0
  1  7  1  0
 14 13  1  0
 14  7  1  0
  7  3  1  0
  3 16  2  0
  3  4  1  0
  4  5  2  0
  4 12  1  0
  5 15  1  0
 12 11  2  0
 15  6  2  0
 11  6  1  0
M  END
$$$$
