7gpj_B_201_1_7gpw+B+202+1__LIG
     RDKit          3D

 19 20  0  0  0  0  0  0  0  0999 V2000
   -8.8150   -2.9590    7.6600 N   0  0  0  0  0  0  0  0  0  0  0  0
   -5.5640    1.9660    4.1790 C   0  0  0  0  0  0  0  0  0  0  0  0
   -5.8830    0.6200    4.2590 C   0  0  0  0  0  0  0  0  0  0  0  0
   -5.4690   -0.1310    5.3590 C   0  0  0  0  0  0  0  0  0  0  0  0
   -5.7480   -1.6120    5.3500 C   0  0  0  0  0  0  0  0  0  0  0  0
   -7.1960   -3.5000    5.8890 C   0  0  0  0  0  0  0  0  0  0  0  0
   -8.5710   -1.6660    7.6110 C   0  0  0  0  0  0  0  0  0  0  0  0
   -6.9050   -2.0570    5.8700 N   0  0  0  0  0  0  0  0  0  0  0  0
   -4.3280   -0.2490    7.6460 C   0  0  0  0  0  0  0  0  0  0  0  0
   -4.9200   -2.3700    4.8760 O   0  0  0  0  0  0  0  0  0  0  0  0
   -4.7510    0.4910    6.3990 C   0  0  0  0  0  0  0  0  0  0  0  0
   -7.9180   -1.1370    6.3720 C   0  0  0  0  0  0  0  0  0  0  0  0
   -4.4470    1.8430    6.2960 C   0  0  0  0  0  0  0  0  0  0  0  0
   -4.8460    2.5700    5.1850 C   0  0  0  0  0  0  0  0  0  0  0  0
   -8.4330   -3.9330    6.6570 C   0  0  0  0  0  0  0  0  0  0  0  0
   -5.3400   -0.4790    8.4600 F   0  0  0  0  0  0  0  0  0  0  0  0
   -3.8150   -1.4370    7.3960 F   0  0  0  0  0  0  0  0  0  0  0  0
   -3.4090    0.4090    8.3650 F   0  0  0  0  0  0  0  0  0  0  0  0
   -8.8220   -0.9140    8.5440 O   0  0  0  0  0  0  0  0  0  0  0  0
  2 14  2  0
  2  3  1  0
 14 13  1  0
  3  4  2  0
 13 11  2  0
  4 11  1  0
  4  5  1  0
 11  9  1  0
 18  9  1  0
 10  5  2  0
  5  8  1  0
  9 17  1  0
  9 16  1  0
  8 12  1  0
  8  6  1  0
 12  7  1  0
  6 15  1  0
  7 19  2  0
  7  1  1  0
 15  1  1  0
M  END
$$$$
