D68EV3CPROB-x1396_A_401_1_7gon+B+201+1__LIG
     RDKit          3D

 20 21  0  0  0  0  0  0  0  0999 V2000
   17.5600   -3.6920   18.2460 O   0  0  0  0  0  0  0  0  0  0  0  0
   18.2890   -2.4610   18.0850 S   0  0  0  0  0  0  0  0  0  0  0  0
   19.4530   -2.2460   18.9170 O   0  0  0  0  0  0  0  0  0  0  0  0
   18.7500   -2.3020   16.3910 C   0  0  0  0  0  0  0  0  0  0  0  0
   18.2050   -3.1640   15.4510 C   0  0  0  0  0  0  0  0  0  0  0  0
   18.5500   -3.0110   14.1140 C   0  0  0  0  0  0  0  0  0  0  0  0
   19.4240   -2.0110   13.7260 C   0  0  0  0  0  0  0  0  0  0  0  0
   19.9550   -1.1590   14.6710 C   0  0  0  0  0  0  0  0  0  0  0  0
   19.6220   -1.2960   16.0110 C   0  0  0  0  0  0  0  0  0  0  0  0
   17.1590   -1.1120   18.3860 C   0  0  0  0  0  0  0  0  0  0  0  0
   16.0590   -1.0520   17.3450 C   0  0  0  0  0  0  0  0  0  0  0  0
   16.1860   -0.4040   16.3070 O   0  0  0  0  0  0  0  0  0  0  0  0
   14.9510   -1.7560   17.6730 N   0  0  0  0  0  0  0  0  0  0  0  0
   13.7900   -1.8970   16.8870 C   0  0  0  0  0  0  0  0  0  0  0  0
   13.1710   -3.1530   16.8170 C   0  0  0  0  0  0  0  0  0  0  0  0
   13.7440   -4.3590   17.5170 C   0  0  0  0  0  0  0  0  0  0  0  0
   13.2580   -0.7970   16.2150 C   0  0  0  0  0  0  0  0  0  0  0  0
   12.1030   -0.9430   15.4680 C   0  0  0  0  0  0  0  0  0  0  0  0
   11.4810   -2.1670   15.3880 C   0  0  0  0  0  0  0  0  0  0  0  0
   12.0080   -3.2600   16.0520 C   0  0  0  0  0  0  0  0  0  0  0  0
 16 15  1  0
 15 20  2  0
 20 19  1  0
 19 18  2  0
 18 17  1  0
 17 14  2  0
 15 14  1  0
 14 13  1  0
 13 11  1  0
 12 11  2  0
 11 10  1  0
 10  2  1  0
  3  2  2  0
  2  1  2  0
  4  2  1  0
  4  9  2  0
  9  8  1  0
  8  7  2  0
  7  6  1  0
  6  5  2  0
  5  4  1  0
M  END
$$$$
