D68EV3CPROB-x0857_A_308_1_7gp9+A+201+1__LIG
     RDKit          3D

 16 18  0  0  0  0  0  0  0  0999 V2000
   -1.4260   -7.5370   34.6910 N   0  0  0  0  0  0  0  0  0  0  0  0
   -1.2750   -7.5410   33.3600 C   0  0  0  0  0  0  0  0  0  0  0  0
   -0.4460   -6.6370   32.7090 N   0  0  0  0  0  0  0  0  0  0  0  0
   -0.6170   -6.9420   31.3600 C   0  0  0  0  0  0  0  0  0  0  0  0
   -1.4670   -7.9530   31.2080 N   0  0  0  0  0  0  0  0  0  0  0  0
   -1.8850   -8.3320   32.4860 N   0  0  0  0  0  0  0  0  0  0  0  0
    0.3770   -5.6110   33.1320 C   0  0  0  0  0  0  0  0  0  0  0  0
    1.0510   -4.8470   32.2340 C   0  0  0  0  0  0  0  0  0  0  0  0
    0.8690   -5.1460   30.8370 C   0  0  0  0  0  0  0  0  0  0  0  0
    0.0720   -6.1530   30.4100 C   0  0  0  0  0  0  0  0  0  0  0  0
    1.9720   -3.7700   32.6570 C   0  0  0  0  0  0  0  0  0  0  0  0
    3.1550   -3.7110   32.0240 N   0  0  0  0  0  0  0  0  0  0  0  0
    3.9980   -2.7450   32.4160 C   0  0  0  0  0  0  0  0  0  0  0  0
    3.6730   -1.8540   33.4210 C   0  0  0  0  0  0  0  0  0  0  0  0
    2.4960   -1.9090   34.0530 N   0  0  0  0  0  0  0  0  0  0  0  0
    1.6500   -2.8680   33.6660 C   0  0  0  0  0  0  0  0  0  0  0  0
  2  1  1  0
  2  6  2  0
  6  5  1  0
  5  4  2  0
  4 10  1  0
 10  9  2  0
  9  8  1  0
 11  8  1  0
 11 16  2  0
 16 15  1  0
 15 14  2  0
 14 13  1  0
 13 12  2  0
 12 11  1  0
  8  7  2  0
  7  3  1  0
  3  2  1  0
  4  3  1  0
M  END
$$$$
