7gqr_B_201_1_7gqr+B+201+1__LIG
     RDKit          3D

 10 11  0  0  0  0  0  0  0  0999 V2000
   -8.4610  -22.1780   10.4930 C   0  0  0  0  0  0  0  0  0  0  0  0
   -8.5570  -23.1280    9.4890 C   0  0  0  0  0  0  0  0  0  0  0  0
   -8.8710  -22.6860    8.2220 C   0  0  0  0  0  0  0  0  0  0  0  0
   -9.3090  -21.2250    6.5470 N   0  0  0  0  0  0  0  0  0  0  0  0
   -9.1430  -22.4380    6.1290 C   0  0  0  0  0  0  0  0  0  0  0  0
   -8.8980  -23.4120    7.0430 O   0  0  0  0  0  0  0  0  0  0  0  0
   -9.1170  -21.3600    7.9250 C   0  0  0  0  0  0  0  0  0  0  0  0
   -9.0140  -20.4090    8.9360 C   0  0  0  0  0  0  0  0  0  0  0  0
   -8.6880  -20.8360   10.2220 C   0  0  0  0  0  0  0  0  0  0  0  0
   -9.0590  -22.9390    4.7000 Cl  0  0  0  0  0  0  0  0  0  0  0  0
 10  5  1  0
  4  5  2  0
  4  7  1  0
  5  6  1  0
  7  8  2  0
  7  3  1  0
  8  9  1  0
  6  3  1  0
  3  2  2  0
  9  1  2  0
  2  1  1  0
M  END
$$$$
