D68EV3CPROB-x1307_B_301_1_7gp9+A+201+1__LIG
     RDKit          3D

 18 19  0  0  0  0  0  0  0  0999 V2000
   -2.1720   -3.3740   31.4000 O   0  0  0  0  0  0  0  0  0  0  0  0
   -1.0900   -2.4480   31.5090 S   0  0  0  0  0  0  0  0  0  0  0  0
   -0.9470   -1.6710   32.7010 O   0  0  0  0  0  0  0  0  0  0  0  0
   -1.2320   -1.3220   30.1750 C   0  0  0  0  0  0  0  0  0  0  0  0
   -1.0950    0.3140   30.2300 S   0  0  0  0  0  0  0  0  0  0  0  0
   -1.3870    0.5510   28.6090 N   0  0  0  0  0  0  0  0  0  0  0  0
   -1.5880   -0.6330   28.0280 C   0  0  0  0  0  0  0  0  0  0  0  0
   -1.5020   -1.7210   28.8920 C   0  0  0  0  0  0  0  0  0  0  0  0
    0.2810   -3.2790   31.3070 N   0  0  0  0  0  0  0  0  0  0  0  0
    0.5100   -4.0730   30.0910 C   0  0  0  0  0  0  0  0  0  0  0  0
    1.2110   -5.3840   30.3970 C   0  0  0  0  0  0  0  0  0  0  0  0
    0.5250   -6.1390   31.4840 C   0  0  0  0  0  0  0  0  0  0  0  0
   -0.3980   -7.0710   31.0910 N   0  0  0  0  0  0  0  0  0  0  0  0
   -1.1630   -7.8050   31.9770 C   0  0  0  0  0  0  0  0  0  0  0  0
   -1.9970   -8.5900   31.5420 O   0  0  0  0  0  0  0  0  0  0  0  0
    0.7520   -5.9120   32.7370 N   0  0  0  0  0  0  0  0  0  0  0  0
    0.0290   -6.6150   33.6640 C   0  0  0  0  0  0  0  0  0  0  0  0
   -0.9160   -7.5380   33.3700 C   0  0  0  0  0  0  0  0  0  0  0  0
 15 14  2  0
 14 18  1  0
 18 17  2  0
 17 16  1  0
 16 12  2  0
 12 11  1  0
 11 10  1  0
 10  9  1  0
  9  2  1  0
  3  2  2  0
  2  1  2  0
  4  2  1  0
  4  8  2  0
  8  7  1  0
  7  6  2  0
  6  5  1  0
  5  4  1  0
 13 12  1  0
 14 13  1  0
M  END
$$$$
