7gq1_B_202_1_7gq1+B+202+1__LIG
     RDKit          3D

  8  8  0  0  0  0  0  0  0  0999 V2000
    1.8580  -17.8530    9.7100 C   0  0  0  0  0  0  0  0  0  0  0  0
    3.5730  -16.8270    8.2120 C   0  0  0  0  0  0  0  0  0  0  0  0
    4.7350  -16.7980    7.8420 O   0  0  0  0  0  0  0  0  0  0  0  0
    3.1530  -17.7930    9.2670 C   0  0  0  0  0  0  0  0  0  0  0  0
    3.9790  -18.7460    9.9540 C   0  0  0  0  0  0  0  0  0  0  0  0
    3.2810  -19.4810   10.8830 C   0  0  0  0  0  0  0  0  0  0  0  0
    2.6380  -16.0450    7.7240 O   0  0  0  0  0  0  0  0  0  0  0  0
    1.6550  -19.0220   10.9120 S   0  0  0  0  0  0  0  0  0  0  0  0
  6  5  2  0
  6  8  1  0
  5  4  1  0
  3  2  2  0
  4  2  1  0
  4  1  2  0
  8  1  1  0
  2  7  1  0
M  END
$$$$
