D68EV3CPROB-x1276_A_308_1_D68EV3CPROB-x1035+A+308+1__LIG
     RDKit          3D

 16 17  0  0  0  0  0  0  0  0999 V2000
  -13.7650   -7.3940   39.6230 O   0  0  0  0  0  0  0  0  0  0  0  0
  -13.9890   -8.5650   39.9200 C   0  0  0  0  0  0  0  0  0  0  0  0
  -13.7400   -9.1300   41.1150 N   0  0  0  0  0  0  0  0  0  0  0  0
  -13.9120  -10.5760   41.1420 C   0  0  0  0  0  0  0  0  0  0  0  0
  -14.4220  -10.8420   39.7560 C   0  0  0  0  0  0  0  0  0  0  0  0
  -14.8890  -12.0110   39.1660 C   0  0  0  0  0  0  0  0  0  0  0  0
  -14.4530   -9.6540   39.0420 C   0  0  0  0  0  0  0  0  0  0  0  0
  -14.9460   -9.6150   37.7370 C   0  0  0  0  0  0  0  0  0  0  0  0
  -15.4300  -10.7900   37.1800 C   0  0  0  0  0  0  0  0  0  0  0  0
  -15.4150  -12.0090   37.8770 C   0  0  0  0  0  0  0  0  0  0  0  0
  -15.9780  -13.2710   37.2760 C   0  0  0  0  0  0  0  0  0  0  0  0
  -15.9920  -10.7550   35.8780 O   0  0  0  0  0  0  0  0  0  0  0  0
  -15.2250  -11.0600   34.5220 S   0  0  0  0  0  0  0  0  0  0  0  0
  -15.7780  -10.3320   33.4680 O   0  0  0  0  0  0  0  0  0  0  0  0
  -15.0410  -12.4530   34.4790 O   0  0  0  0  0  0  0  0  0  0  0  0
  -13.8990  -10.4620   34.8210 F   0  0  0  0  0  0  0  0  0  0  0  0
 11 10  1  0
 10  6  2  0
  6  5  1  0
  5  7  2  0
  8  7  1  0
  9  8  2  0
 10  9  1  0
 12  9  1  0
 13 12  1  0
 14 13  2  0
 15 13  2  0
 16 13  1  0
  7  2  1  0
  2  1  2  0
  3  2  1  0
  4  3  1  0
  5  4  1  0
M  END
$$$$
