7gos_B_201_1_7gp7+A+201+1__LIG
     RDKit          3D

 17 19  0  0  0  0  0  0  0  0999 V2000
  -11.8120  -22.6850   29.5940 C   0  0  0  0  0  0  0  0  0  0  0  0
  -11.9760  -23.2130   26.8630 C   0  0  0  0  0  0  0  0  0  0  0  0
  -12.1290  -23.9620   29.1480 C   0  0  0  0  0  0  0  0  0  0  0  0
   -9.9840  -23.9290   34.3220 C   0  0  0  0  0  0  0  0  0  0  0  0
   -9.6560  -24.5610   33.1230 C   0  0  0  0  0  0  0  0  0  0  0  0
  -10.1830  -24.1200   31.9180 C   0  0  0  0  0  0  0  0  0  0  0  0
  -11.0580  -23.0440   31.9560 C   0  0  0  0  0  0  0  0  0  0  0  0
  -11.3970  -22.3990   33.1440 C   0  0  0  0  0  0  0  0  0  0  0  0
  -10.8520  -22.8430   34.3450 C   0  0  0  0  0  0  0  0  0  0  0  0
  -12.3160  -21.3790   32.8930 N   0  0  0  0  0  0  0  0  0  0  0  0
  -12.5170  -21.4350   31.6020 C   0  0  0  0  0  0  0  0  0  0  0  0
  -11.8000  -22.4010   30.9660 N   0  0  0  0  0  0  0  0  0  0  0  0
  -11.5550  -21.6840   28.6780 C   0  0  0  0  0  0  0  0  0  0  0  0
  -11.6410  -21.9490   27.3260 C   0  0  0  0  0  0  0  0  0  0  0  0
  -12.2060  -24.2170   27.7930 C   0  0  0  0  0  0  0  0  0  0  0  0
  -12.1150  -23.4830   25.3950 C   0  0  0  0  0  0  0  0  0  0  0  0
  -12.4940  -22.3460   24.6130 O   0  0  0  0  0  0  0  0  0  0  0  0
 11 10  2  0
 11 12  1  0
  3 15  1  0
  3  1  2  0
 10  8  1  0
 15  2  2  0
 17 16  1  0
 12  1  1  0
 12  7  1  0
  1 13  1  0
  8  7  2  0
  8  9  1  0
  2 16  1  0
  2 14  1  0
  7  6  1  0
  9  4  2  0
 13 14  2  0
  6  5  2  0
  4  5  1  0
M  END
$$$$
