7gpt_A_201_1_7gon+B+201+1__LIG
     RDKit          3D

 13 13  0  0  0  0  0  0  0  0999 V2000
   19.5730   -1.5850   14.5740 C   0  0  0  0  0  0  0  0  0  0  0  0
   16.1290   -0.7690   12.7740 C   0  0  0  0  0  0  0  0  0  0  0  0
   15.9060   -0.6790   11.2750 C   0  0  0  0  0  0  0  0  0  0  0  0
   15.8580   -2.0650   10.6450 C   0  0  0  0  0  0  0  0  0  0  0  0
   17.2640   -1.6890   13.1120 N   0  0  0  0  0  0  0  0  0  0  0  0
   17.0770   -4.2340   10.2550 C   0  0  0  0  0  0  0  0  0  0  0  0
   18.0510   -5.2490   13.0980 O   0  0  0  0  0  0  0  0  0  0  0  0
   17.0880   -2.8990   10.9860 C   0  0  2  0  0  0  0  0  0  0  0  0
   17.2050   -3.0420   12.4970 C   0  0  1  0  0  0  0  0  0  0  0  0
   18.4230   -3.9080   12.7950 C   0  0  0  0  0  0  0  0  0  0  0  0
   17.3440   -2.6430   15.3670 O   0  0  0  0  0  0  0  0  0  0  0  0
   17.4480   -0.2040   15.0600 O   0  0  0  0  0  0  0  0  0  0  0  0
   17.8200   -1.5170   14.6300 S   0  0  0  0  0  0  0  0  0  0  0  0
  7 10  1  0
  8  6  1  6
  9 10  1  6
  9  8  1  0
  9  5  1  0
  8  4  1  0
 11 13  2  0
  4  3  1  0
  5 13  1  0
  5  2  1  0
  1 13  1  0
 13 12  2  0
  2  3  1  0
M  END
$$$$
