7gpq_A_201_1_7gpw+B+202+1__LIG
     RDKit          3D

 14 14  0  0  0  0  0  0  0  0999 V2000
   -4.5070   -2.2750    6.1610 C   0  0  0  0  0  0  0  0  0  0  0  0
   -7.3330   -3.4550    6.4660 C   0  0  0  0  0  0  0  0  0  0  0  0
   -8.7680   -3.6260    6.8910 C   0  0  0  0  0  0  0  0  0  0  0  0
   -9.5140   -2.5600    6.0900 C   0  0  0  0  0  0  0  0  0  0  0  0
   -7.2130   -1.9830    6.3820 N   0  0  0  0  0  0  0  0  0  0  0  0
   -8.9020   -0.2870    7.0610 C   0  0  0  0  0  0  0  0  0  0  0  0
   -9.7120   -0.4740    4.1540 O   0  0  0  0  0  0  0  0  0  0  0  0
   -8.5390   -1.3590    6.0310 C   0  0  2  0  0  0  0  0  0  0  0  0
   -8.5000   -0.7840    4.6100 C   0  0  0  0  0  0  0  0  0  0  0  0
   -9.9360   -0.6920    2.7400 C   0  0  0  0  0  0  0  0  0  0  0  0
   -7.4930   -0.6400    3.9770 O   0  0  0  0  0  0  0  0  0  0  0  0
   -5.7670   -0.0230    6.0080 O   0  0  0  0  0  0  0  0  0  0  0  0
   -5.7170   -1.1870    8.1710 O   0  0  0  0  0  0  0  0  0  0  0  0
   -5.8000   -1.2450    6.7470 S   0  0  0  0  0  0  0  0  0  0  0  0
  8  6  1  1
  9  8  1  0
  7  9  1  0
 10  7  1  0
 11  9  2  0
  8  5  1  0
  5 14  1  0
 12 14  2  0
  1 14  1  0
 14 13  2  0
  2  5  1  0
  3  2  1  0
  4  3  1  0
  8  4  1  0
M  END
$$$$
