D68EV3CPROB-x0839_A_308_1_7gp9+A+201+1__LIG
     RDKit          3D

 21 23  0  0  0  0  0  0  0  0999 V2000
    7.9110  -10.0450   26.5630 O   0  0  0  0  0  0  0  0  0  0  0  0
    7.4740   -8.8980   26.5280 C   0  0  0  0  0  0  0  0  0  0  0  0
    7.0210   -8.3530   25.3500 N   0  0  0  0  0  0  0  0  0  0  0  0
    6.5350   -7.0900   25.2050 C   0  0  0  0  0  0  0  0  0  0  0  0
    7.4130   -8.0020   27.7050 C   0  0  0  0  0  0  0  0  0  0  0  0
    6.9130   -6.6930   27.5790 C   0  0  0  0  0  0  0  0  0  0  0  0
    6.9100   -5.8500   28.6910 C   0  0  0  0  0  0  0  0  0  0  0  0
    7.4040   -6.2970   29.9070 C   0  0  0  0  0  0  0  0  0  0  0  0
    7.8970   -7.5790   30.0290 C   0  0  0  0  0  0  0  0  0  0  0  0
    7.8990   -8.4370   28.9390 C   0  0  0  0  0  0  0  0  0  0  0  0
    6.4500   -6.2480   26.2570 C   0  0  0  0  0  0  0  0  0  0  0  0
    5.8990   -5.0000   26.1320 N   0  0  0  0  0  0  0  0  0  0  0  0
    4.5660   -4.7800   26.3480 C   0  0  0  0  0  0  0  0  0  0  0  0
    3.7730   -5.6770   26.6460 O   0  0  0  0  0  0  0  0  0  0  0  0
    4.1400   -3.3690   26.1850 C   0  0  0  0  0  0  0  0  0  0  0  0
    5.0770   -2.3610   26.0440 N   0  0  0  0  0  0  0  0  0  0  0  0
    4.3700   -1.2980   25.9250 C   0  0  0  0  0  0  0  0  0  0  0  0
    3.0290   -1.4910   25.9760 O   0  0  0  0  0  0  0  0  0  0  0  0
    2.8980   -2.8450   26.1470 C   0  0  0  0  0  0  0  0  0  0  0  0
    1.5190   -3.3820   26.2410 C   0  0  0  0  0  0  0  0  0  0  0  0
    0.9490   -3.7130   24.9570 N   0  0  0  0  0  0  0  0  0  0  0  0
 21 20  1  0
 20 19  1  0
 19 18  1  0
 18 17  1  0
 17 16  2  0
 16 15  1  0
 19 15  2  0
 15 13  1  0
 14 13  2  0
 13 12  1  0
 12 11  1  0
 11  4  2  0
  4  3  1  0
  3  2  1  0
  2  1  2  0
  5  2  1  0
  5 10  2  0
 10  9  1  0
  9  8  2  0
  8  7  1  0
  7  6  2  0
 11  6  1  0
  6  5  1  0
M  END
$$$$
