D68EV3CPROB-x1270_A_308_1_7gon+B+201+1__LIG
     RDKit          3D

 22 25  0  0  0  0  0  0  0  0999 V2000
   15.6150   -4.9610   20.1390 C   0  0  0  0  0  0  0  0  0  0  0  0
   15.0650   -3.7570   19.5250 N   0  0  0  0  0  0  0  0  0  0  0  0
   15.2370   -2.4710   19.8580 C   0  0  0  0  0  0  0  0  0  0  0  0
   16.3020   -2.0030   21.1680 S   0  0  0  0  0  0  0  0  0  0  0  0
   16.4090   -0.2590   21.3870 C   0  0  0  0  0  0  0  0  0  0  0  0
   15.3050    0.4910   21.7960 N   0  0  0  0  0  0  0  0  0  0  0  0
   13.9990    0.1650   22.0130 C   0  0  0  0  0  0  0  0  0  0  0  0
   13.3160    1.2050   22.4010 N   0  0  0  0  0  0  0  0  0  0  0  0
   14.1920    2.2900   22.4490 N   0  0  0  0  0  0  0  0  0  0  0  0
   15.3900    1.8510   22.0830 C   0  0  0  0  0  0  0  0  0  0  0  0
   16.6470    2.4860   21.9500 C   0  0  0  0  0  0  0  0  0  0  0  0
   17.7260    1.7570   21.5420 C   0  0  0  0  0  0  0  0  0  0  0  0
   17.6030    0.3720   21.2500 C   0  0  0  0  0  0  0  0  0  0  0  0
   14.5700   -1.6690   19.0480 N   0  0  0  0  0  0  0  0  0  0  0  0
   13.9810   -2.5940   18.1790 C   0  0  0  0  0  0  0  0  0  0  0  0
   14.2630   -3.8640   18.4420 N   0  0  0  0  0  0  0  0  0  0  0  0
   13.0990   -2.2020   17.0530 C   0  0  0  0  0  0  0  0  0  0  0  0
   13.0780   -0.8890   16.5850 C   0  0  0  0  0  0  0  0  0  0  0  0
   12.2410   -0.5300   15.5400 C   0  0  0  0  0  0  0  0  0  0  0  0
   11.4180   -1.4720   14.9540 C   0  0  0  0  0  0  0  0  0  0  0  0
   11.4370   -2.7760   15.4010 C   0  0  0  0  0  0  0  0  0  0  0  0
   12.2650   -3.1440   16.4460 C   0  0  0  0  0  0  0  0  0  0  0  0
  2  1  1  0
  2 16  1  0
 16 15  2  0
 17 15  1  0
 17 22  2  0
 22 21  1  0
 21 20  2  0
 20 19  1  0
 19 18  2  0
 18 17  1  0
 15 14  1  0
 14  3  2  0
  3  2  1  0
  4  3  1  0
  5  4  1  0
  5 13  2  0
 13 12  1  0
 12 11  2  0
 11 10  1  0
 10  9  2  0
  9  8  1  0
  8  7  2  0
  7  6  1  0
  6  5  1  0
 10  6  1  0
M  END
$$$$
