D68EV3CPROB-x1219_A_308_1_7gpw+B+202+1__LIG
     RDKit          3D

 20 23  0  0  0  0  0  0  0  0999 V2000
   -3.8020   -2.3390    7.6850 F   0  0  0  0  0  0  0  0  0  0  0  0
   -4.6430   -1.2760    7.5420 C   0  0  0  0  0  0  0  0  0  0  0  0
   -5.9940   -1.5310    7.4780 C   0  0  0  0  0  0  0  0  0  0  0  0
   -6.8300   -0.4410    7.2810 C   0  0  0  0  0  0  0  0  0  0  0  0
   -6.3210    0.8510    7.1500 C   0  0  0  0  0  0  0  0  0  0  0  0
   -4.9430    1.0630    7.2350 C   0  0  0  0  0  0  0  0  0  0  0  0
   -4.0950   -0.0150    7.4360 C   0  0  0  0  0  0  0  0  0  0  0  0
   -8.2020   -0.3210    7.1120 N   0  0  0  0  0  0  0  0  0  0  0  0
   -8.4450    0.9910    6.8710 C   0  0  0  0  0  0  0  0  0  0  0  0
   -7.3690    1.7320    6.8990 N   0  0  0  0  0  0  0  0  0  0  0  0
  -10.0450    1.5660    6.4520 S   0  0  0  0  0  0  0  0  0  0  0  0
  -11.0940    0.5830    7.4290 C   0  0  0  0  0  0  0  0  0  0  0  0
  -11.2490    0.9370    8.7640 N   0  0  0  0  0  0  0  0  0  0  0  0
  -10.6500    1.8690    9.5590 C   0  0  0  0  0  0  0  0  0  0  0  0
  -11.1740    1.8680   10.7520 N   0  0  0  0  0  0  0  0  0  0  0  0
  -12.1660    0.8850   10.7750 N   0  0  0  0  0  0  0  0  0  0  0  0
  -12.2000    0.3290    9.5710 C   0  0  0  0  0  0  0  0  0  0  0  0
  -13.0020   -0.6860    9.0060 C   0  0  0  0  0  0  0  0  0  0  0  0
  -12.8110   -1.0540    7.7000 C   0  0  0  0  0  0  0  0  0  0  0  0
  -11.8370   -0.4160    6.8940 C   0  0  0  0  0  0  0  0  0  0  0  0
  2  1  1  0
  2  7  2  0
  7  6  1  0
  6  5  2  0
  5 10  1  0
 10  9  2  0
 11  9  1  0
 12 11  1  0
 12 20  2  0
 20 19  1  0
 19 18  2  0
 18 17  1  0
 17 16  2  0
 16 15  1  0
 15 14  2  0
 14 13  1  0
 13 12  1  0
 17 13  1  0
  9  8  1  0
  8  4  1  0
  5  4  1  0
  4  3  2  0
  3  2  1  0
M  END
$$$$
