D68EV3CPROB-x0450_B_301_1_7gp9+A+201+1__LIG
     RDKit          3D

 20 22  0  0  0  0  0  0  0  0999 V2000
   -1.6790   -7.5360   34.6210 N   0  0  0  0  0  0  0  0  0  0  0  0
   -1.4300   -7.5130   33.3040 C   0  0  0  0  0  0  0  0  0  0  0  0
   -1.9260   -8.3210   32.3740 N   0  0  0  0  0  0  0  0  0  0  0  0
   -1.3720   -7.9350   31.1480 N   0  0  0  0  0  0  0  0  0  0  0  0
   -0.5800   -6.5910   32.7420 N   0  0  0  0  0  0  0  0  0  0  0  0
   -0.5660   -6.8980   31.3840 C   0  0  0  0  0  0  0  0  0  0  0  0
    0.2340   -6.0900   30.5320 C   0  0  0  0  0  0  0  0  0  0  0  0
    0.9440   -5.0580   31.0640 C   0  0  0  0  0  0  0  0  0  0  0  0
    0.1350   -5.5310   33.2650 C   0  0  0  0  0  0  0  0  0  0  0  0
    0.9040   -4.7400   32.4760 C   0  0  0  0  0  0  0  0  0  0  0  0
    1.6620   -3.5880   33.0460 C   0  0  0  0  0  0  0  0  0  0  0  0
    1.8840   -2.4290   32.3000 C   0  0  0  0  0  0  0  0  0  0  0  0
    2.5090   -1.3300   32.8630 C   0  0  0  0  0  0  0  0  0  0  0  0
    2.0990   -3.6370   34.3710 C   0  0  0  0  0  0  0  0  0  0  0  0
    2.7070   -2.5360   34.9490 C   0  0  0  0  0  0  0  0  0  0  0  0
    3.0990   -2.4640   36.2590 O   0  0  0  0  0  0  0  0  0  0  0  0
    4.1530   -3.3310   36.6800 C   0  0  0  0  0  0  0  0  0  0  0  0
    2.9190   -1.3710   34.1880 C   0  0  0  0  0  0  0  0  0  0  0  0
    3.5520   -0.3480   34.8390 O   0  0  0  0  0  0  0  0  0  0  0  0
    4.9790   -0.3700   34.8690 C   0  0  0  0  0  0  0  0  0  0  0  0
 20 19  1  0
 19 18  1  0
 18 13  1  0
 13 12  2  0
 12 11  1  0
 11 10  1  0
 10  8  1  0
  8  7  2  0
  7  6  1  0
  6  4  2  0
  4  3  1  0
  3  2  2  0
  2  1  1  0
  5  2  1  0
  6  5  1  0
  9  5  1  0
 10  9  2  0
 14 11  2  0
 15 14  1  0
 18 15  2  0
 16 15  1  0
 17 16  1  0
M  END
$$$$
