7go3_A_301_1_7gq5+A+201+1__LIG
     RDKit          3D

 10 10  0  0  0  0  0  0  0  0999 V2000
  -10.1040  -26.0540   31.1310 N   0  0  0  0  0  0  0  0  0  0  0  0
  -10.6980  -25.3680   28.8210 C   0  0  0  0  0  0  0  0  0  0  0  0
   -9.8520  -26.2290   29.7020 C   0  0  0  0  0  0  0  0  0  0  0  0
   -9.1950  -25.0850   31.7410 C   0  0  0  0  0  0  0  0  0  0  0  0
  -11.8000  -24.7920   27.1000 N   0  0  0  0  0  0  0  0  0  0  0  0
  -12.8990  -26.2970   25.4680 C   0  0  0  0  0  0  0  0  0  0  0  0
  -12.3950  -24.9070   25.7660 C   0  0  0  0  0  0  0  0  0  0  0  0
  -11.9190  -23.7700   27.9640 C   0  0  0  0  0  0  0  0  0  0  0  0
  -11.2260  -24.1110   29.0820 C   0  0  0  0  0  0  0  0  0  0  0  0
  -11.0420  -25.7970   27.6000 N   0  0  0  0  0  0  0  0  0  0  0  0
  7  5  1  0
  7  6  1  0
  8  5  1  0
  8  9  2  0
  5 10  1  0
  9  2  1  0
 10  2  2  0
  2  3  1  0
  3  1  1  0
  4  1  1  0
M  END
$$$$
