7gow_A_201_1_7gp7+A+201+1__LIG
     RDKit          3D

 14 15  0  0  0  0  0  0  0  0999 V2000
  -11.3380  -26.4930   11.4760 N   0  0  0  0  0  0  0  0  0  0  0  0
  -12.6880  -28.4160   10.7840 C   0  0  0  0  0  0  0  0  0  0  0  0
  -10.8240  -25.2580   11.3840 C   0  0  0  0  0  0  0  0  0  0  0  0
  -10.0570  -24.7210   12.5930 C   0  0  1  0  0  0  0  0  0  0  0  0
   -8.8870  -23.8950   12.1970 C   0  0  0  0  0  0  0  0  0  0  0  0
   -9.1940  -22.5050   12.7110 C   0  0  0  0  0  0  0  0  0  0  0  0
  -12.0740  -29.3420   11.7390 N   0  0  0  0  0  0  0  0  0  0  0  0
  -11.3650  -30.4250   11.0390 C   0  0  0  0  0  0  0  0  0  0  0  0
  -10.9490  -24.5860   10.3770 O   0  0  0  0  0  0  0  0  0  0  0  0
  -11.1690  -28.6160   12.6340 C   0  0  0  0  0  0  0  0  0  0  0  0
  -11.5770  -27.1700   12.7510 C   0  0  0  0  0  0  0  0  0  0  0  0
  -11.6960  -27.3470   10.3400 C   0  0  0  0  0  0  0  0  0  0  0  0
  -10.1580  -22.7660   13.8020 C   0  0  0  0  0  0  0  0  0  0  0  0
  -10.9160  -23.9140   13.4050 O   0  0  0  0  0  0  0  0  0  0  0  0
  8  7  1  0
  7 10  1  0
  7  2  1  0
 10 11  1  0
  2 12  1  0
 12  1  1  0
 11  1  1  0
  1  3  1  0
  4  3  1  6
  3  9  2  0
  4  5  1  0
  4 14  1  0
  5  6  1  0
 14 13  1  0
 13  6  1  0
M  END
$$$$
