7gps_B_201_1_7gon+B+201+1__LIG
     RDKit          3D

 15 17  0  0  0  0  0  0  0  0999 V2000
   14.7430    0.9630   13.4930 N   0  0  0  0  0  0  0  0  0  0  0  0
   12.1360   -3.3290   15.7320 C   0  0  0  0  0  0  0  0  0  0  0  0
   13.1590   -3.5530   16.6250 C   0  0  0  0  0  0  0  0  0  0  0  0
   14.0950   -2.5640   16.8780 C   0  0  0  0  0  0  0  0  0  0  0  0
   12.7590    0.2570   14.6890 C   0  0  0  0  0  0  0  0  0  0  0  0
   13.9970    1.1640   14.7470 C   0  0  1  0  0  0  0  0  0  0  0  0
   14.6080    3.3140   13.7890 C   0  0  0  0  0  0  0  0  0  0  0  0
   15.7580    1.7470   16.2300 O   0  0  0  0  0  0  0  0  0  0  0  0
   14.9600    0.8830   15.8890 C   0  0  0  0  0  0  0  0  0  0  0  0
   13.6160    2.6590   14.7380 C   0  0  0  0  0  0  0  0  0  0  0  0
   14.9040    2.2330   12.7690 C   0  0  0  0  0  0  0  0  0  0  0  0
   12.9490   -1.0930   15.3240 C   0  0  0  0  0  0  0  0  0  0  0  0
   12.0340   -2.1140   15.0800 C   0  0  0  0  0  0  0  0  0  0  0  0
   13.9910   -1.3330   16.2310 C   0  0  0  0  0  0  0  0  0  0  0  0
   14.9140   -0.3200   16.4900 N   0  0  0  0  0  0  0  0  0  0  0  0
 11  7  1  0
 11  1  1  0
  7 10  1  0
  1  6  1  0
  6 10  1  1
  8  9  2  0
  6  9  1  0
  6  5  1  0
  9 15  1  0
  5 12  1  0
 15 14  1  0
 12 14  2  0
 12 13  1  0
 14  4  1  0
 13  2  2  0
  4  3  2  0
  2  3  1  0
M  END
$$$$
