D68EV3CPROB-x0738_B_207_1_7gp9+A+201+1__LIG
     RDKit          3D

 20 23  0  0  0  0  0  0  0  0999 V2000
    3.9080   -7.9920   38.2630 C   0  0  0  0  0  0  0  0  0  0  0  0
    4.9990   -8.6950   38.7480 C   0  0  0  0  0  0  0  0  0  0  0  0
    3.8160   -8.2500   36.9020 C   0  0  0  0  0  0  0  0  0  0  0  0
    4.8440   -9.0930   36.5760 N   0  0  0  0  0  0  0  0  0  0  0  0
    5.5600   -9.3720   37.6880 C   0  0  0  0  0  0  0  0  0  0  0  0
    2.9340   -7.8100   36.0230 C   0  0  0  0  0  0  0  0  0  0  0  0
    1.9740   -6.9710   36.4960 O   0  0  0  0  0  0  0  0  0  0  0  0
    1.2680   -6.7060   35.3700 C   0  0  0  0  0  0  0  0  0  0  0  0
    1.7280   -7.3110   34.3320 N   0  0  0  0  0  0  0  0  0  0  0  0
    2.8280   -8.0370   34.7630 N   0  0  0  0  0  0  0  0  0  0  0  0
   -0.0700   -5.6440   35.3280 S   0  0  0  0  0  0  0  0  0  0  0  0
    0.0110   -5.8040   33.5900 C   0  0  0  0  0  0  0  0  0  0  0  0
   -0.7510   -6.8030   32.9770 N   0  0  0  0  0  0  0  0  0  0  0  0
   -1.6380   -7.7250   33.4510 C   0  0  0  0  0  0  0  0  0  0  0  0
   -2.0950   -8.4710   32.4830 N   0  0  0  0  0  0  0  0  0  0  0  0
   -1.4990   -8.0380   31.2980 N   0  0  0  0  0  0  0  0  0  0  0  0
   -0.6860   -7.0370   31.6050 C   0  0  0  0  0  0  0  0  0  0  0  0
    0.1920   -6.2360   30.8280 C   0  0  0  0  0  0  0  0  0  0  0  0
    0.9310   -5.2630   31.4360 C   0  0  0  0  0  0  0  0  0  0  0  0
    0.8340   -5.0370   32.8320 C   0  0  0  0  0  0  0  0  0  0  0  0
  2  5  2  0
  5  4  1  0
  4  3  1  0
  6  3  1  0
  6 10  2  0
 10  9  1  0
  9  8  2  0
 11  8  1  0
 12 11  1  0
 12 20  2  0
 20 19  1  0
 19 18  2  0
 18 17  1  0
 17 16  2  0
 16 15  1  0
 15 14  2  0
 14 13  1  0
 13 12  1  0
 17 13  1  0
  8  7  1  0
  7  6  1  0
  3  1  2  0
  2  1  1  0
M  END
$$$$
