7gp3_A_201_1_7gp7+A+201+1__LIG
     RDKit          3D

 15 16  0  0  0  0  0  0  0  0999 V2000
   -6.1640  -28.2850   15.0850 N   0  0  0  0  0  0  0  0  0  0  0  0
   -7.6530  -27.8600   13.2390 C   0  0  0  0  0  0  0  0  0  0  0  0
   -9.0590  -27.8630   12.6910 C   0  0  0  0  0  0  0  0  0  0  0  0
   -9.5830  -25.4690   12.5200 C   0  0  0  0  0  0  0  0  0  0  0  0
  -10.2420  -24.3110   13.2190 C   0  0  0  0  0  0  0  0  0  0  0  0
  -11.2240  -23.5390   12.3610 C   0  0  0  0  0  0  0  0  0  0  0  0
   -9.3870  -23.0490   13.4390 C   0  0  0  0  0  0  0  0  0  0  0  0
   -9.8150  -26.6720   13.0540 N   0  0  0  0  0  0  0  0  0  0  0  0
   -3.8130  -27.6370   15.0640 C   0  0  0  0  0  0  0  0  0  0  0  0
   -8.9020  -25.3050   11.5040 O   0  0  0  0  0  0  0  0  0  0  0  0
   -5.1400  -27.7630   14.3780 C   0  0  0  0  0  0  0  0  0  0  0  0
   -7.3790  -28.3280   14.5110 C   0  0  0  0  0  0  0  0  0  0  0  0
   -5.3280  -27.3040   13.0740 C   0  0  0  0  0  0  0  0  0  0  0  0
   -6.5910  -27.3510   12.5170 C   0  0  0  0  0  0  0  0  0  0  0  0
  -10.4070  -22.2490   12.6440 C   0  0  0  0  0  0  0  0  0  0  0  0
  6 15  1  0
  6  5  1  0
 15  7  1  0
  5  7  1  0
  5  4  1  0
  9 11  1  0
  4 10  2  0
  4  8  1  0
  1 11  2  0
  1 12  1  0
 11 13  1  0
 12  2  2  0
  8  3  1  0
 13 14  2  0
  2 14  1  0
  2  3  1  0
M  END
$$$$
