7gnv_B_202_1_7gq1+B+202+1__LIG
     RDKit          3D

  9  9  0  0  0  0  0  0  0  0999 V2000
    4.6020  -19.1800    9.5310 S   0  0  0  0  0  0  0  0  0  0  0  0
    3.4570  -17.9190    9.2440 C   0  0  0  0  0  0  0  0  0  0  0  0
    2.2690  -18.1710    9.8840 C   0  0  0  0  0  0  0  0  0  0  0  0
    2.3130  -19.4060   10.5690 C   0  0  0  0  0  0  0  0  0  0  0  0
    3.4940  -20.0300   10.4750 C   0  0  0  0  0  0  0  0  0  0  0  0
    1.0770  -17.2580    9.8990 C   0  0  0  0  0  0  0  0  0  0  0  0
    3.8180  -16.7820    8.3750 C   0  0  0  0  0  0  0  0  0  0  0  0
    5.1000  -16.6380    8.1480 O   0  0  0  0  0  0  0  0  0  0  0  0
    2.9640  -16.0300    7.9190 O   0  0  0  0  0  0  0  0  0  0  0  0
  6  3  1  0
  4  3  1  0
  4  5  2  0
  3  2  2  0
  5  1  1  0
  8  7  2  0
  2  7  1  0
  2  1  1  0
  7  9  1  0
M  END
$$$$
