7gnx_A_201_1_D68EV3CPROB-x1081+A+308+1__LIG
     RDKit          3D

 15 16  0  0  0  0  0  0  0  0999 V2000
  -18.2830  -13.0690    9.9310 C   0  0  0  0  0  0  0  0  0  0  0  0
  -19.5940  -16.4690   12.8780 C   0  0  0  0  0  0  0  0  0  0  0  0
  -18.2680  -16.5400   13.6320 C   0  0  0  0  0  0  0  0  0  0  0  0
  -17.7880  -17.9660   13.6930 C   0  0  0  0  0  0  0  0  0  0  0  0
  -19.9700  -18.8290   13.5770 C   0  0  0  0  0  0  0  0  0  0  0  0
  -19.2810  -13.9490   12.0450 N   0  0  0  0  0  0  0  0  0  0  0  0
  -19.1280  -14.1500   10.5930 C   0  0  0  0  0  0  0  0  0  0  0  0
  -20.1400  -14.3620   14.3370 O   0  0  0  0  0  0  0  0  0  0  0  0
  -20.4260  -14.1000    9.7970 C   0  0  0  0  0  0  0  0  0  0  0  0
  -19.9920  -13.8060    8.3680 C   0  0  0  0  0  0  0  0  0  0  0  0
  -18.6030  -13.1910    8.4500 C   0  0  0  0  0  0  0  0  0  0  0  0
  -20.5850  -17.4540   13.5000 C   0  0  0  0  0  0  0  0  0  0  0  0
  -21.5730  -14.8420   12.3770 O   0  0  0  0  0  0  0  0  0  0  0  0
  -18.7490  -18.8150   14.3200 O   0  0  0  0  0  0  0  0  0  0  0  0
  -20.2740  -14.8300   12.9880 S   0  0  0  0  0  0  0  0  0  0  0  0
 14  5  1  0
 14  4  1  0
  5 12  1  0
  4  3  1  0
 12  2  1  0
  3  2  1  0
  2 15  1  0
 15 13  2  0
 15  8  2  0
 15  6  1  0
  7  9  1  0
  7  6  1  0
  7  1  1  0
  9 10  1  0
 10 11  1  0
 11  1  1  0
M  END
$$$$
