7gql_A_201_1_7gql+A+201+1__LIG
     RDKit          3D

 11 12  0  0  0  0  0  0  0  0999 V2000
  -10.6400  -25.5000   32.7600 N   0  0  0  0  0  0  0  0  0  0  0  0
  -10.3570  -25.5950   30.2460 C   0  0  0  0  0  0  0  0  0  0  0  0
  -10.6920  -24.9540   29.0580 C   0  0  0  0  0  0  0  0  0  0  0  0
  -11.4750  -23.7990   29.0600 C   0  0  0  0  0  0  0  0  0  0  0  0
  -11.9370  -23.2530   30.2510 C   0  0  0  0  0  0  0  0  0  0  0  0
  -11.5930  -23.8970   31.4330 C   0  0  0  0  0  0  0  0  0  0  0  0
  -11.8790  -23.6300   32.7640 N   0  0  0  0  0  0  0  0  0  0  0  0
  -14.0130  -22.7630   33.7330 C   0  0  0  0  0  0  0  0  0  0  0  0
  -12.6160  -22.4340   33.2850 C   0  0  0  0  0  0  0  0  0  0  0  0
  -11.2900  -24.6260   33.4870 C   0  0  0  0  0  0  0  0  0  0  0  0
  -10.8190  -25.0580   31.4470 C   0  0  0  0  0  0  0  0  0  0  0  0
  4  3  2  0
  4  5  1  0
  3  2  1  0
  5  6  2  0
  2 11  2  0
  6 11  1  0
  6  7  1  0
 11  1  1  0
  9  7  1  0
  9  8  1  0
  7 10  1  0
  1 10  2  0
M  END
$$$$
