7gqe_B_201_1_7gon+B+201+1__LIG
     RDKit          3D

 13 14  0  0  0  0  0  0  0  0999 V2000
   13.0100   -3.8330   15.9920 C   0  0  0  0  0  0  0  0  0  0  0  0
   13.9210   -2.9820   16.6220 C   0  0  0  0  0  0  0  0  0  0  0  0
   15.1630   -3.6360   17.1580 C   0  0  0  0  0  0  0  0  0  0  0  0
   17.4340   -4.4140   16.5580 C   0  0  0  0  0  0  0  0  0  0  0  0
   17.8700   -5.1740   15.3620 C   0  0  0  0  0  0  0  0  0  0  0  0
   16.2890   -3.5060   16.4310 N   0  0  0  0  0  0  0  0  0  0  0  0
   13.6120   -1.6030   16.6770 C   0  0  0  0  0  0  0  0  0  0  0  0
   14.4020   -0.7030   17.3310 O   0  0  0  0  0  0  0  0  0  0  0  0
   12.4470   -1.1230   16.0780 C   0  0  0  0  0  0  0  0  0  0  0  0
   11.5830   -1.9940   15.4350 C   0  0  0  0  0  0  0  0  0  0  0  0
   11.8580   -3.3380   15.3990 C   0  0  0  0  0  0  0  0  0  0  0  0
   17.2030   -5.8750   16.4860 C   0  0  0  0  0  0  0  0  0  0  0  0
   15.1270   -4.2850   18.2000 O   0  0  0  0  0  0  0  0  0  0  0  0
  8  7  1  0
  5  4  1  0
  5 12  1  0
  9  7  2  0
  9 10  1  0
  6  4  1  0
  6  3  1  0
  7  2  1  0
  4 12  1  0
 10 11  2  0
  2  3  1  0
  2  1  2  0
 11  1  1  0
  3 13  2  0
M  END
$$$$
