7gqn_B_201_1_7gon+B+201+1__LIG
     RDKit          3D

  6  6  0  0  0  0  0  0  0  0999 V2000
   11.7930   -0.8170   15.8800 N   0  0  0  0  0  0  0  0  0  0  0  0
   11.7020   -2.5440   14.5060 N   0  0  0  0  0  0  0  0  0  0  0  0
   12.9110   -1.5850   16.0290 C   0  0  0  0  0  0  0  0  0  0  0  0
   12.8760   -2.6590   15.1980 C   0  0  0  0  0  0  0  0  0  0  0  0
   11.0920   -1.4360   14.9450 C   0  0  0  0  0  0  0  0  0  0  0  0
   14.4280   -1.0690   17.3400 I   0  0  0  0  0  0  0  0  0  0  0  0
  1  5  1  0
  1  3  1  0
  5  2  2  0
  6  3  1  0
  3  4  2  0
  2  4  1  0
M  END
$$$$
