D68EV3CPROB-x0723_A_401_1_7gp9+A+201+1__LIG
     RDKit          3D

 23 26  0  0  0  0  0  0  0  0999 V2000
   -0.5760    3.3830   27.4750 C   0  0  0  0  0  0  0  0  0  0  0  0
   -1.6700    3.6290   26.6710 C   0  0  0  0  0  0  0  0  0  0  0  0
   -0.3360    2.1050   27.9570 C   0  0  0  0  0  0  0  0  0  0  0  0
   -1.1960    1.0560   27.6360 C   0  0  0  0  0  0  0  0  0  0  0  0
   -2.2980    1.3180   26.8230 C   0  0  0  0  0  0  0  0  0  0  0  0
   -2.5350    2.5990   26.3530 C   0  0  0  0  0  0  0  0  0  0  0  0
   -0.9960   -0.2950   28.1940 C   0  0  0  0  0  0  0  0  0  0  0  0
    0.1960   -0.8140   28.6280 N   0  0  0  0  0  0  0  0  0  0  0  0
    0.0660   -2.1540   28.8290 C   0  0  0  0  0  0  0  0  0  0  0  0
   -1.1810   -2.4710   28.5090 N   0  0  0  0  0  0  0  0  0  0  0  0
   -1.8400   -1.3080   28.1090 N   0  0  0  0  0  0  0  0  0  0  0  0
    1.0920   -3.1420   29.3600 C   0  0  0  0  0  0  0  0  0  0  0  0
    0.3930   -4.0420   30.3020 N   0  0  0  0  0  0  0  0  0  0  0  0
    1.2550   -4.9300   31.0930 C   0  0  0  0  0  0  0  0  0  0  0  0
    0.5310   -5.6110   32.2120 C   0  0  0  0  0  0  0  0  0  0  0  0
   -0.3630   -6.6580   31.9050 N   0  0  0  0  0  0  0  0  0  0  0  0
   -0.7490   -7.2230   30.7210 C   0  0  0  0  0  0  0  0  0  0  0  0
   -1.5790   -8.2070   30.9230 N   0  0  0  0  0  0  0  0  0  0  0  0
   -1.7730   -8.3220   32.2980 N   0  0  0  0  0  0  0  0  0  0  0  0
   -1.0260   -7.3900   32.8840 C   0  0  0  0  0  0  0  0  0  0  0  0
   -0.7780   -7.0730   34.2440 C   0  0  0  0  0  0  0  0  0  0  0  0
    0.0940   -6.0600   34.5500 C   0  0  0  0  0  0  0  0  0  0  0  0
    0.7430   -5.3220   33.5250 C   0  0  0  0  0  0  0  0  0  0  0  0
  2  6  2  0
  6  5  1  0
  5  4  2  0
  7  4  1  0
  7 11  2  0
 11 10  1  0
 10  9  2  0
 12  9  1  0
 13 12  1  0
 14 13  1  0
 15 14  1  0
 15 23  2  0
 23 22  1  0
 22 21  2  0
 21 20  1  0
 20 19  2  0
 19 18  1  0
 18 17  2  0
 17 16  1  0
 16 15  1  0
 20 16  1  0
  9  8  1  0
  8  7  1  0
  4  3  1  0
  3  1  2  0
  2  1  1  0
M  END
$$$$
