7gpr_A_201_1_7gp7+A+201+1__LIG
     RDKit          3D

 16 17  0  0  0  0  0  0  0  0999 V2000
  -14.2420  -25.0480   14.7670 C   0  0  0  0  0  0  0  0  0  0  0  0
  -13.1000  -25.2360   14.0080 C   0  0  0  0  0  0  0  0  0  0  0  0
  -12.0160  -25.9520   14.5100 C   0  0  0  0  0  0  0  0  0  0  0  0
  -10.7520  -26.1230   13.6550 C   0  0  1  0  0  0  0  0  0  0  0  0
  -10.3140  -24.7510   13.1040 C   0  0  0  0  0  0  0  0  0  0  0  0
   -9.5520  -26.7300   14.4310 C   0  0  0  0  0  0  0  0  0  0  0  0
   -9.1970  -28.0270   13.8600 N   0  0  0  0  0  0  0  0  0  0  0  0
  -15.5670  -25.3050   16.8970 C   0  0  0  0  0  0  0  0  0  0  0  0
  -10.1840  -23.8500   14.0760 O   0  0  0  0  0  0  0  0  0  0  0  0
  -14.3460  -25.5650   16.0500 C   0  0  0  0  0  0  0  0  0  0  0  0
   -9.6430  -27.9610   12.4700 C   0  0  0  0  0  0  0  0  0  0  0  0
  -10.9420  -27.1520   12.5050 C   0  0  0  0  0  0  0  0  0  0  0  0
  -13.2740  -26.2950   16.5440 C   0  0  0  0  0  0  0  0  0  0  0  0
  -12.1300  -26.4890   15.7910 C   0  0  0  0  0  0  0  0  0  0  0  0
   -9.3550  -22.6970   13.7830 C   0  0  0  0  0  0  0  0  0  0  0  0
  -10.1030  -24.5160   11.9480 O   0  0  0  0  0  0  0  0  0  0  0  0
  7 11  1  0
  7  6  1  0
 11 12  1  0
 12  4  1  0
  6  4  1  0
 14 13  2  0
 14  3  1  0
  4  3  1  0
  4  5  1  6
 13 10  1  0
  3  2  2  0
 10  8  1  0
 10  1  2  0
  2  1  1  0
  5 16  2  0
  5  9  1  0
  9 15  1  0
M  END
$$$$
