7gpd_B_201_1_7gon+B+201+1__LIG
     RDKit          3D

 16 16  0  0  0  0  0  0  0  0999 V2000
   15.7180   -0.4660   18.7200 N   0  0  0  0  0  0  0  0  0  0  0  0
   15.1640    0.1780   20.9760 C   0  0  0  0  0  0  0  0  0  0  0  0
   14.5900   -0.5350   17.9750 C   0  0  0  0  0  0  0  0  0  0  0  0
   13.5120   -1.9470   16.2520 C   0  0  0  0  0  0  0  0  0  0  0  0
   13.0000   -1.0830   15.2950 C   0  0  0  0  0  0  0  0  0  0  0  0
   11.9280   -1.4800   14.5140 C   0  0  0  0  0  0  0  0  0  0  0  0
   11.8730   -3.5830   15.6320 C   0  0  0  0  0  0  0  0  0  0  0  0
   17.4950    0.4630   20.1030 C   0  0  0  0  0  0  0  0  0  0  0  0
   16.0100    0.5400   19.7580 C   0  0  0  0  0  0  0  0  0  0  0  0
   15.6510    1.9340   19.2510 C   0  0  0  0  0  0  0  0  0  0  0  0
   16.3720    2.9920   19.8650 O   0  0  0  0  0  0  0  0  0  0  0  0
   14.9670   -1.2240   21.1230 O   0  0  0  0  0  0  0  0  0  0  0  0
   13.6850    0.2960   18.0340 O   0  0  0  0  0  0  0  0  0  0  0  0
   14.5690   -1.5940   17.1120 N   0  0  0  0  0  0  0  0  0  0  0  0
   11.3670   -2.7270   14.6830 C   0  0  0  0  0  0  0  0  0  0  0  0
   12.9460   -3.2040   16.4160 C   0  0  0  0  0  0  0  0  0  0  0  0
  6 15  2  0
  6  5  1  0
 15  7  1  0
  5  4  2  0
  7 16  2  0
  4 16  1  0
  4 14  1  0
 14  3  1  0
 12  2  1  0
  1  3  1  0
  1  9  1  0
  3 13  2  0
 11 10  1  0
  2  9  1  0
  9 10  1  0
  9  8  1  0
M  END
$$$$
