D68EV3CPROB-x0805_B_301_1_7gp9+A+201+1__LIG
     RDKit          3D

 23 26  0  0  0  0  0  0  0  0999 V2000
   -0.7120   -7.2680   36.4320 O   0  0  0  0  0  0  0  0  0  0  0  0
    0.5190   -6.8160   35.8600 S   0  0  0  0  0  0  0  0  0  0  0  0
    1.3970   -7.7870   35.2780 O   0  0  0  0  0  0  0  0  0  0  0  0
    0.1370   -5.7240   34.7050 N   0  0  0  0  0  0  0  0  0  0  0  0
    0.2560   -5.9220   33.3370 C   0  0  0  0  0  0  0  0  0  0  0  0
   -0.5910   -6.8520   32.7630 N   0  0  0  0  0  0  0  0  0  0  0  0
   -1.5150   -7.7110   33.2820 C   0  0  0  0  0  0  0  0  0  0  0  0
   -2.0540   -8.4330   32.3440 N   0  0  0  0  0  0  0  0  0  0  0  0
   -1.4830   -8.0420   31.1340 N   0  0  0  0  0  0  0  0  0  0  0  0
   -0.5970   -7.0980   31.3980 C   0  0  0  0  0  0  0  0  0  0  0  0
    0.3140   -6.3860   30.5890 C   0  0  0  0  0  0  0  0  0  0  0  0
    1.1610   -5.4730   31.1550 C   0  0  0  0  0  0  0  0  0  0  0  0
    1.1420   -5.2200   32.5500 C   0  0  0  0  0  0  0  0  0  0  0  0
   -0.3950   -4.4190   35.1830 C   0  0  0  0  0  0  0  0  0  0  0  0
   -0.5250   -4.3160   36.6860 C   0  0  0  0  0  0  0  0  0  0  0  0
    0.8300   -4.5060   37.3600 C   0  0  0  0  0  0  0  0  0  0  0  0
    1.4420   -5.8860   37.0810 C   0  0  1  0  0  0  0  0  0  0  0  0
    1.5860   -6.7470   38.3160 C   0  0  0  0  0  0  0  0  0  0  0  0
    2.7510   -7.4710   38.5360 C   0  0  0  0  0  0  0  0  0  0  0  0
    2.8770   -8.2870   39.6520 C   0  0  0  0  0  0  0  0  0  0  0  0
    1.8450   -8.3850   40.5620 C   0  0  0  0  0  0  0  0  0  0  0  0
    0.6840   -7.6640   40.3600 C   0  0  0  0  0  0  0  0  0  0  0  0
    0.5550   -6.8510   39.2420 C   0  0  0  0  0  0  0  0  0  0  0  0
  3  2  2  0
  2  1  2  0
  2 17  1  0
 17 18  1  1
 18 23  2  0
 23 22  1  0
 22 21  2  0
 21 20  1  0
 20 19  2  0
 19 18  1  0
 17 16  1  0
 16 15  1  0
 15 14  1  0
 14  4  1  0
  4  2  1  0
  5  4  1  0
  5 13  2  0
 13 12  1  0
 12 11  2  0
 11 10  1  0
 10  9  2  0
  9  8  1  0
  8  7  2  0
  7  6  1  0
  6  5  1  0
 10  6  1  0
M  END
$$$$
