D68EV3CPROB-x0525_B_301_1_7gp9+A+201+1__LIG
     RDKit          3D

 22 24  0  0  0  0  0  0  0  0999 V2000
   -1.6740   -4.2090   31.7740 O   0  0  0  0  0  0  0  0  0  0  0  0
   -0.4770   -4.2380   31.9900 C   0  0  0  0  0  0  0  0  0  0  0  0
    0.1550   -5.4440   32.6820 C   0  0  0  0  0  0  0  0  0  0  0  0
   -0.5200   -6.6770   32.2890 N   0  0  0  0  0  0  0  0  0  0  0  0
   -0.5930   -7.2110   31.0530 C   0  0  0  0  0  0  0  0  0  0  0  0
   -1.3580   -8.2690   31.0500 N   0  0  0  0  0  0  0  0  0  0  0  0
   -1.8030   -8.4420   32.3560 N   0  0  0  0  0  0  0  0  0  0  0  0
   -1.2780   -7.4770   33.0630 C   0  0  0  0  0  0  0  0  0  0  0  0
    0.3430   -3.2400   31.6010 N   0  0  0  0  0  0  0  0  0  0  0  0
   -0.2230   -2.0030   31.0610 C   0  0  0  0  0  0  0  0  0  0  0  0
    0.2330   -1.8820   29.6090 C   0  0  2  0  0  0  0  0  0  0  0  0
    1.7550   -1.7230   29.5620 C   0  0  0  0  0  0  0  0  0  0  0  0
    2.3920   -2.0190   30.9190 C   0  0  0  0  0  0  0  0  0  0  0  0
    1.8120   -3.2770   31.5570 C   0  0  0  0  0  0  0  0  0  0  0  0
   -0.5280   -0.7990   28.8700 C   0  0  0  0  0  0  0  0  0  0  0  0
   -1.4390   -1.1330   27.8810 C   0  0  0  0  0  0  0  0  0  0  0  0
   -2.1220   -0.1570   27.1810 C   0  0  0  0  0  0  0  0  0  0  0  0
   -1.9320    1.1860   27.4610 C   0  0  0  0  0  0  0  0  0  0  0  0
   -2.6890    2.2360   26.6880 C   0  0  0  0  0  0  0  0  0  0  0  0
   -2.0360    3.4980   26.6980 O   0  0  0  0  0  0  0  0  0  0  0  0
   -1.0330    1.5220   28.4610 C   0  0  0  0  0  0  0  0  0  0  0  0
   -0.3400    0.5450   29.1530 C   0  0  0  0  0  0  0  0  0  0  0  0
  2  1  2  0
  3  2  1  0
  4  3  1  0
  4  8  1  0
  8  7  2  0
  7  6  1  0
  6  5  2  0
  5  4  1  0
  9  2  1  0
  9 14  1  0
 14 13  1  0
 13 12  1  0
 12 11  1  0
 11 15  1  1
 15 22  2  0
 22 21  1  0
 21 18  2  0
 19 18  1  0
 20 19  1  0
 18 17  1  0
 17 16  2  0
 16 15  1  0
 11 10  1  0
 10  9  1  0
M  END
$$$$
