D68EV3CPROB-x1035_A_308_1_D68EV3CPROB-x1035+A+308+1__LIG
     RDKit          3D

 15 16  0  0  0  0  0  0  0  0999 V2000
  -15.0510  -10.1910   33.8460 F   0  0  0  0  0  0  0  0  0  0  0  0
  -14.0820   -9.7480   34.9830 S   0  0  0  0  0  0  0  0  0  0  0  0
  -13.7170   -8.4270   34.7150 O   0  0  0  0  0  0  0  0  0  0  0  0
  -13.2000  -10.8090   35.2050 O   0  0  0  0  0  0  0  0  0  0  0  0
  -15.1450   -9.7210   36.1470 O   0  0  0  0  0  0  0  0  0  0  0  0
  -14.8220   -9.5520   37.5190 C   0  0  0  0  0  0  0  0  0  0  0  0
  -14.7790  -10.6520   38.3610 C   0  0  0  0  0  0  0  0  0  0  0  0
  -14.5220   -8.2820   37.9940 C   0  0  0  0  0  0  0  0  0  0  0  0
  -14.1670   -8.1110   39.3220 C   0  0  0  0  0  0  0  0  0  0  0  0
  -14.1170   -9.2140   40.1710 C   0  0  0  0  0  0  0  0  0  0  0  0
  -13.8010   -9.3180   41.6070 C   0  0  0  0  0  0  0  0  0  0  0  0
  -13.5090   -8.4150   42.3880 O   0  0  0  0  0  0  0  0  0  0  0  0
  -14.4210  -10.4790   39.6940 C   0  0  0  0  0  0  0  0  0  0  0  0
  -14.2760  -11.4790   40.8030 C   0  0  0  0  0  0  0  0  0  0  0  0
  -13.8980  -10.6220   41.9200 N   0  0  0  0  0  0  0  0  0  0  0  0
 12 11  2  0
 11 15  1  0
 15 14  1  0
 14 13  1  0
 13  7  1  0
  7  6  2  0
  6  5  1  0
  5  2  1  0
  3  2  2  0
  4  2  2  0
  2  1  1  0
  8  6  1  0
  9  8  2  0
 10  9  1  0
 13 10  2  0
 11 10  1  0
M  END
$$$$
