7goh_A_201_1_7gp7+A+201+1__LIG
     RDKit          3D

 14 15  0  0  0  0  0  0  0  0999 V2000
  -11.3410  -21.9420   31.4650 N   0  0  0  0  0  0  0  0  0  0  0  0
  -11.5480  -23.9210   28.3850 C   0  0  1  0  0  0  0  0  0  0  0  0
  -13.0090  -24.3100   28.2360 C   0  0  0  0  0  0  0  0  0  0  0  0
  -11.2520  -22.2820   30.1980 C   0  0  0  0  0  0  0  0  0  0  0  0
  -11.3380  -20.5710   31.5640 C   0  0  0  0  0  0  0  0  0  0  0  0
  -11.4550  -19.8870   32.8780 C   0  0  0  0  0  0  0  0  0  0  0  0
  -11.2070  -23.5580   29.7760 N   0  0  0  0  0  0  0  0  0  0  0  0
  -10.6120  -25.2760   26.4410 C   0  0  0  0  0  0  0  0  0  0  0  0
   -9.2840  -24.7090   28.2980 O   0  0  0  0  0  0  0  0  0  0  0  0
  -10.6170  -25.0440   27.9330 C   0  0  1  0  0  0  0  0  0  0  0  0
   -9.0730  -24.7040   29.7210 C   0  0  0  0  0  0  0  0  0  0  0  0
  -10.3710  -24.5420   30.4690 C   0  0  0  0  0  0  0  0  0  0  0  0
  -11.2500  -19.8440   30.4750 N   0  0  0  0  0  0  0  0  0  0  0  0
  -11.1720  -20.8820   29.1660 S   0  0  0  0  0  0  0  0  0  0  0  0
 14 13  1  0
 14  4  1  0
 10  8  1  6
 13  5  2  0
  9 10  1  0
  9 11  1  0
 10  2  1  0
  2  3  1  1
  2  7  1  0
  4  7  1  0
  4  1  2  0
  5  1  1  0
  5  6  1  0
 11 12  1  0
  7 12  1  0
M  END
$$$$
