7gp6_B_201_1_7gon+B+201+1_ALIG
     RDKit          3D

 15 16  0  0  0  0  0  0  0  0999 V2000
   14.8290   -0.7780   16.7360 N   0  0  0  0  0  0  0  0  0  0  0  0
   11.6910   -3.2350   15.7570 C   0  0  0  0  0  0  0  0  0  0  0  0
   12.6800   -3.8150   16.5500 C   0  0  0  0  0  0  0  0  0  0  0  0
   13.7770   -3.0780   16.9740 C   0  0  0  0  0  0  0  0  0  0  0  0
   13.8570   -1.7540   16.5700 C   0  0  0  0  0  0  0  0  0  0  0  0
   16.1020   -0.9890   17.4330 C   0  0  0  0  0  0  0  0  0  0  0  0
   17.0230   -3.3200   17.0060 C   0  0  0  0  0  0  0  0  0  0  0  0
   13.2170    0.1620   15.5190 N   0  0  0  0  0  0  0  0  0  0  0  0
   15.1840    1.5940   15.9990 C   0  0  0  0  0  0  0  0  0  0  0  0
   16.7940   -4.1930   16.1650 O   0  0  0  0  0  0  0  0  0  0  0  0
   14.3880    0.3440   16.0830 C   0  0  0  0  0  0  0  0  0  0  0  0
   12.8670   -1.1570   15.7970 C   0  0  0  0  0  0  0  0  0  0  0  0
   11.7670   -1.9010   15.3810 C   0  0  0  0  0  0  0  0  0  0  0  0
   17.0550   -1.8580   16.6250 C   0  0  0  0  0  0  0  0  0  0  0  0
   17.2590   -3.5930   18.2770 N   0  0  0  0  0  0  0  0  0  0  0  0
  9 11  1  0
  8 11  2  0
  8 12  1  0
 11  1  1  0
 12 13  1  0
 12  5  2  0
 13  2  2  0
 10  7  2  0
  1  5  1  0
  1  6  1  0
 14  7  1  0
 14  6  1  0
  5  4  1  0
  2  3  1  0
  7 15  1  0
  4  3  2  0
M  END
$$$$
7gp6_B_201_1_7gon+B+201+1_BLIG
     RDKit          3D

 15 16  0  0  0  0  0  0  0  0999 V2000
   13.1020   -0.2070   15.3850 N   0  0  0  0  0  0  0  0  0  0  0  0
   12.8010   -4.1930   16.3040 C   0  0  0  0  0  0  0  0  0  0  0  0
   11.6550   -3.6140   15.7650 C   0  0  0  0  0  0  0  0  0  0  0  0
   11.6280   -2.2730   15.4160 C   0  0  0  0  0  0  0  0  0  0  0  0
   12.7860   -1.5370   15.6140 C   0  0  0  0  0  0  0  0  0  0  0  0
   12.1720    0.8090   14.8900 C   0  0  0  0  0  0  0  0  0  0  0  0
   10.4790    2.4910   15.7010 C   0  0  0  0  0  0  0  0  0  0  0  0
   14.9530   -1.1460   16.1960 N   0  0  0  0  0  0  0  0  0  0  0  0
   15.1310    1.2530   15.5890 C   0  0  0  0  0  0  0  0  0  0  0  0
    9.6750    2.0090   14.9030 O   0  0  0  0  0  0  0  0  0  0  0  0
   14.4150   -0.0390   15.7410 C   0  0  0  0  0  0  0  0  0  0  0  0
   13.9460   -2.1040   16.1300 C   0  0  0  0  0  0  0  0  0  0  0  0
   13.9590   -3.4500   16.4870 C   0  0  0  0  0  0  0  0  0  0  0  0
   11.8090    1.8270   15.9590 C   0  0  0  0  0  0  0  0  0  0  0  0
   10.2400    3.6040   16.3770 N   0  0  0  0  0  0  0  0  0  0  0  0
  9 11  1  0
  8 11  2  0
  8 12  1  0
 11  1  1  0
 12 13  1  0
 12  5  2  0
 13  2  2  0
 10  7  2  0
  1  5  1  0
  1  6  1  0
 14  7  1  0
 14  6  1  0
  5  4  1  0
  2  3  1  0
  7 15  1  0
  4  3  2  0
M  END
$$$$
